<?xml version="1.0" encoding="UTF-8"?>

<!-- generated on 2025-12-21 01:30:05 by Eclipse SUMO netconvert Version 1.23.1
<netconvertConfiguration xmlns:xsi="http://www.w3.org/2001/XMLSchema-instance" xsi:noNamespaceSchemaLocation="http://sumo.dlr.de/xsd/netconvertConfiguration.xsd">

    <input>
        <osm-files value="/home/dmmsjtu/Desktop/TeraSim-main/packages/terasim-envgen/terasim_envgen/core/urban_construcion_zone/scenes/scene_39.7400_-104.9800_2000/map.osm"/>
    </input>

    <output>
        <output-file value="/home/dmmsjtu/Desktop/TeraSim-main/packages/terasim-envgen/terasim_envgen/core/urban_construcion_zone/scenes/scene_39.7400_-104.9800_2000/map.net.xml"/>
    </output>

    <projection>
        <proj.utm value="true"/>
    </projection>

    <processing>
        <geometry.remove value="true"/>
        <roundabouts.guess value="true"/>
    </processing>

    <tls_building>
        <tls.guess value="true"/>
    </tls_building>

    <ramp_guessing>
        <ramps.guess value="true"/>
    </ramp_guessing>

    <junctions>
        <junctions.join value="true"/>
    </junctions>

</netconvertConfiguration>
-->

<net version="1.20" junctionCornerDetail="5" limitTurnSpeed="5.50" xmlns:xsi="http://www.w3.org/2001/XMLSchema-instance" xsi:noNamespaceSchemaLocation="http://sumo.dlr.de/xsd/net_file.xsd">

    <location netOffset="-500660.73,-4397850.15" convBoundary="0.00,0.00,2102.67,2118.91" origBoundary="-104.992288,39.730536,-104.967746,39.749627" projParameter="+proj=utm +zone=13 +ellps=WGS84 +datum=WGS84 +units=m +no_defs"/>

    <type id="highway.busway" priority="1" numLanes="1" speed="27.78" allow="bus" oneway="1"/>
    <type id="highway.primary" priority="12" numLanes="2" speed="27.78" disallow="tram rail_urban rail rail_electric rail_fast ship container cable_car subway aircraft wheelchair scooter drone" oneway="0"/>
    <type id="highway.primary_link" priority="7" numLanes="1" speed="22.22" disallow="tram rail_urban rail rail_electric rail_fast ship container cable_car subway aircraft wheelchair scooter drone" oneway="0"/>
    <type id="highway.residential" priority="3" numLanes="1" speed="13.89" disallow="tram rail_urban rail rail_electric rail_fast ship container cable_car subway aircraft wheelchair scooter drone" oneway="0"/>
    <type id="highway.secondary" priority="11" numLanes="1" speed="27.78" disallow="tram rail_urban rail rail_electric rail_fast ship container cable_car subway aircraft wheelchair scooter drone" oneway="0"/>
    <type id="highway.secondary_link" priority="6" numLanes="1" speed="22.22" disallow="tram rail_urban rail rail_electric rail_fast ship container cable_car subway aircraft wheelchair scooter drone" oneway="0"/>
    <type id="highway.tertiary" priority="10" numLanes="1" speed="22.22" disallow="tram rail_urban rail rail_electric rail_fast ship container cable_car subway aircraft wheelchair scooter drone" oneway="0"/>
    <type id="highway.tertiary_link" priority="5" numLanes="1" speed="22.22" disallow="tram rail_urban rail rail_electric rail_fast ship container cable_car subway aircraft wheelchair scooter drone" oneway="0"/>
    <type id="highway.unclassified" priority="4" numLanes="1" speed="13.89" disallow="tram rail_urban rail rail_electric rail_fast ship container cable_car subway aircraft wheelchair scooter drone" oneway="0"/>

    <edge id=":1029126922_0" function="internal">
        <lane id=":1029126922_0_0" index="0" disallow="tram rail_urban rail rail_electric rail_fast ship container cable_car subway aircraft wheelchair scooter drone" speed="5.48" length="9.72" shape="1616.46,1492.60 1616.11,1489.52 1615.06,1488.11 1613.32,1488.36 1610.89,1490.28"/>
    </edge>
    <edge id=":1029126922_1" function="internal">
        <lane id=":1029126922_1_0" index="0" disallow="tram rail_urban rail rail_electric rail_fast ship container cable_car subway aircraft wheelchair scooter drone" speed="13.41" length="34.88" shape="1616.46,1492.60 1617.13,1482.60 1619.17,1473.90 1622.60,1466.50 1627.41,1460.40"/>
    </edge>
    <edge id=":1029126922_2" function="internal">
        <lane id=":1029126922_2_0" index="0" disallow="tram rail_urban rail rail_electric rail_fast ship container cable_car subway aircraft wheelchair scooter drone" speed="3.65" length="2.34" shape="1616.46,1492.60 1617.26,1491.40 1618.06,1490.99"/>
    </edge>
    <edge id=":1029126922_16" function="internal">
        <lane id=":1029126922_16_0" index="0" disallow="tram rail_urban rail rail_electric rail_fast ship container cable_car subway aircraft wheelchair scooter drone" speed="3.65" length="2.34" shape="1618.06,1490.99 1618.86,1491.39 1619.66,1492.59"/>
    </edge>
    <edge id=":1029126922_3" function="internal">
        <lane id=":1029126922_3_0" index="0" disallow="tram rail_urban rail rail_electric rail_fast ship container cable_car subway aircraft wheelchair scooter drone" speed="13.41" length="28.51" shape="1634.16,1467.22 1629.21,1473.02 1625.67,1479.18 1623.56,1485.70 1622.86,1492.58"/>
    </edge>
    <edge id=":1029126922_4" function="internal">
        <lane id=":1029126922_4_0" index="0" disallow="tram rail_urban rail rail_electric rail_fast ship container cable_car subway aircraft wheelchair scooter drone" speed="13.41" length="32.77" shape="1634.16,1467.22 1610.89,1490.28"/>
        <lane id=":1029126922_4_1" index="1" disallow="tram rail_urban rail rail_electric rail_fast ship container cable_car subway aircraft wheelchair scooter drone" speed="13.41" length="32.77" shape="1631.91,1464.94 1608.63,1488.01"/>
        <lane id=":1029126922_4_2" index="2" disallow="tram rail_urban rail rail_electric rail_fast ship container cable_car subway aircraft wheelchair scooter drone" speed="13.41" length="32.77" shape="1629.66,1462.67 1606.38,1485.74"/>
    </edge>
    <edge id=":1029126922_7" function="internal">
        <lane id=":1029126922_7_0" index="0" disallow="tram rail_urban rail rail_electric rail_fast ship container cable_car subway aircraft wheelchair scooter drone" speed="3.65" length="1.44" shape="1629.66,1462.67 1628.24,1462.95"/>
    </edge>
    <edge id=":1029126922_17" function="internal">
        <lane id=":1029126922_17_0" index="0" disallow="tram rail_urban rail rail_electric rail_fast ship container cable_car subway aircraft wheelchair scooter drone" speed="3.65" length="3.23" shape="1628.24,1462.95 1627.40,1462.66 1627.12,1461.81 1627.41,1460.40"/>
    </edge>
    <edge id=":1029126922_8" function="internal">
        <lane id=":1029126922_8_0" index="0" disallow="tram rail_urban rail rail_electric rail_fast ship container cable_car subway aircraft wheelchair scooter drone" speed="5.48" length="9.72" shape="1619.58,1455.80 1619.93,1458.89 1620.98,1460.30 1622.72,1460.04 1625.16,1458.12"/>
    </edge>
    <edge id=":1029126922_9" function="internal">
        <lane id=":1029126922_9_0" index="0" disallow="tram rail_urban rail rail_electric rail_fast ship container cable_car subway aircraft wheelchair scooter drone" speed="13.41" length="36.94" shape="1619.58,1455.80 1620.10,1464.36 1621.22,1474.19 1622.34,1484.02 1622.86,1492.58"/>
        <lane id=":1029126922_9_1" index="1" disallow="tram rail_urban rail rail_electric rail_fast ship container cable_car subway aircraft wheelchair scooter drone" speed="13.41" length="36.94" shape="1616.38,1455.81 1616.90,1464.37 1618.02,1474.20 1619.14,1484.03 1619.66,1492.59"/>
    </edge>
    <edge id=":1029126922_11" function="internal">
        <lane id=":1029126922_11_0" index="0" disallow="tram rail_urban rail rail_electric rail_fast ship container cable_car subway aircraft wheelchair scooter drone" speed="13.41" length="32.35" shape="1616.38,1455.81 1615.77,1465.17 1613.90,1473.28 1610.77,1480.14 1606.38,1485.74"/>
    </edge>
    <edge id=":1029126922_12" function="internal">
        <lane id=":1029126922_12_0" index="0" disallow="tram rail_urban rail rail_electric rail_fast ship container cable_car subway aircraft wheelchair scooter drone" speed="13.41" length="32.77" shape="1601.88,1481.19 1625.16,1458.12"/>
        <lane id=":1029126922_12_1" index="1" disallow="tram rail_urban rail rail_electric rail_fast ship container cable_car subway aircraft wheelchair scooter drone" speed="13.41" length="32.77" shape="1604.13,1483.46 1627.41,1460.40"/>
    </edge>
    <edge id=":1029126922_14" function="internal">
        <lane id=":1029126922_14_0" index="0" disallow="tram rail_urban rail rail_electric rail_fast ship container cable_car subway aircraft wheelchair scooter drone" speed="8.19" length="2.64" shape="1604.13,1483.46 1606.45,1482.20"/>
    </edge>
    <edge id=":1029126922_15" function="internal">
        <lane id=":1029126922_15_0" index="0" disallow="tram rail_urban rail rail_electric rail_fast ship container cable_car subway aircraft wheelchair scooter drone" speed="3.65" length="1.44" shape="1604.13,1483.46 1605.54,1483.19"/>
    </edge>
    <edge id=":1029126922_18" function="internal">
        <lane id=":1029126922_18_0" index="0" disallow="tram rail_urban rail rail_electric rail_fast ship container cable_car subway aircraft wheelchair scooter drone" speed="8.19" length="21.12" shape="1606.45,1482.20 1609.55,1480.51 1614.55,1481.63 1618.22,1485.95 1619.66,1492.59"/>
    </edge>
    <edge id=":1029126922_19" function="internal">
        <lane id=":1029126922_19_0" index="0" disallow="tram rail_urban rail rail_electric rail_fast ship container cable_car subway aircraft wheelchair scooter drone" speed="3.65" length="3.23" shape="1605.54,1483.19 1606.39,1483.47 1606.67,1484.32 1606.38,1485.74"/>
    </edge>
    <edge id=":1044871385_0" function="internal">
        <lane id=":1044871385_0_0" index="0" disallow="tram rail_urban rail rail_electric rail_fast ship container cable_car subway aircraft wheelchair scooter drone" speed="22.22" length="13.79" shape="52.54,176.07 52.47,172.51 52.32,169.18 52.05,165.86 51.64,162.32"/>
    </edge>
    <edge id=":1044871385_1" function="internal">
        <lane id=":1044871385_1_0" index="0" disallow="tram rail_urban rail rail_electric rail_fast ship container cable_car subway aircraft wheelchair scooter drone" speed="7.98" length="3.91" shape="52.54,176.07 53.06,172.20"/>
    </edge>
    <edge id=":1044871385_2" function="internal">
        <lane id=":1044871385_2_0" index="0" disallow="tram rail_urban rail rail_electric rail_fast ship container cable_car subway aircraft wheelchair scooter drone" speed="3.65" length="1.44" shape="52.54,176.07 53.33,174.87"/>
    </edge>
    <edge id=":1044871385_9" function="internal">
        <lane id=":1044871385_9_0" index="0" disallow="tram rail_urban rail rail_electric rail_fast ship container cable_car subway aircraft wheelchair scooter drone" speed="7.98" length="10.33" shape="53.06,172.20 54.70,169.44 57.45,167.79 61.32,167.24"/>
    </edge>
    <edge id=":1044871385_10" function="internal">
        <lane id=":1044871385_10_0" index="0" disallow="tram rail_urban rail rail_electric rail_fast ship container cable_car subway aircraft wheelchair scooter drone" speed="3.65" length="3.23" shape="53.33,174.87 54.13,174.46 54.93,174.85 55.74,176.05"/>
    </edge>
    <edge id=":1044871385_3" function="internal">
        <lane id=":1044871385_3_0" index="0" disallow="tram rail_urban rail rail_electric rail_fast ship container cable_car subway aircraft wheelchair scooter drone" speed="6.48" length="9.03" shape="61.31,170.44 58.86,170.79 57.11,171.84 56.07,173.59 55.74,176.05"/>
    </edge>
    <edge id=":1044871385_4" function="internal">
        <lane id=":1044871385_4_0" index="0" disallow="tram rail_urban rail rail_electric rail_fast ship container cable_car subway aircraft wheelchair scooter drone" speed="8.36" length="14.02" shape="61.31,170.44 57.48,169.93 54.59,168.40 52.64,165.87 51.64,162.32"/>
    </edge>
    <edge id=":1044871385_5" function="internal">
        <lane id=":1044871385_5_0" index="0" disallow="tram rail_urban rail rail_electric rail_fast ship container cable_car subway aircraft wheelchair scooter drone" speed="3.65" length="4.67" shape="61.31,170.44 60.11,169.64 59.72,168.84 60.12,168.04 61.32,167.24"/>
    </edge>
    <edge id=":1044871385_6" function="internal">
        <lane id=":1044871385_6_0" index="0" disallow="tram rail_urban rail rail_electric rail_fast ship container cable_car subway aircraft wheelchair scooter drone" speed="6.20" length="9.24" shape="55.74,161.85 55.71,164.20 56.62,165.89 58.50,166.90 61.32,167.24"/>
    </edge>
    <edge id=":1044871385_7" function="internal">
        <lane id=":1044871385_7_0" index="0" disallow="tram rail_urban rail rail_electric rail_fast ship container cable_car subway aircraft wheelchair scooter drone" speed="22.22" length="14.23" shape="55.74,161.85 55.34,165.44 55.37,168.92 55.59,172.41 55.74,176.05"/>
    </edge>
    <edge id=":1044871385_8" function="internal">
        <lane id=":1044871385_8_0" index="0" disallow="tram rail_urban rail rail_electric rail_fast ship container cable_car subway aircraft wheelchair scooter drone" speed="4.16" length="2.64" shape="55.74,161.85 54.89,163.51 54.24,163.93"/>
    </edge>
    <edge id=":1044871385_11" function="internal">
        <lane id=":1044871385_11_0" index="0" disallow="tram rail_urban rail rail_electric rail_fast ship container cable_car subway aircraft wheelchair scooter drone" speed="4.16" length="3.39" shape="54.24,163.93 53.93,164.14 52.84,163.74 51.64,162.32"/>
    </edge>
    <edge id=":11006296552_0" function="internal">
        <lane id=":11006296552_0_0" index="0" disallow="tram rail_urban rail rail_electric rail_fast ship container cable_car subway aircraft wheelchair scooter drone" speed="8.71" length="16.80" shape="1832.10,1680.77 1831.49,1686.03 1829.83,1689.79 1827.10,1692.05 1823.32,1692.80"/>
    </edge>
    <edge id=":11006296552_1" function="internal">
        <lane id=":11006296552_1_0" index="0" disallow="tram rail_urban rail rail_electric rail_fast ship container cable_car subway aircraft wheelchair scooter drone" speed="6.53" length="9.01" shape="1823.31,1686.40 1825.73,1686.05 1827.47,1685.00 1828.52,1683.24 1828.90,1680.79"/>
    </edge>
    <edge id=":1158398629_0" function="internal">
        <lane id=":1158398629_0_0" index="0" disallow="tram rail_urban rail rail_electric rail_fast ship container cable_car subway aircraft wheelchair scooter drone" speed="6.92" length="2.49" shape="379.74,1391.43 380.26,1391.96 380.59,1392.35 380.81,1392.81 380.99,1393.51"/>
    </edge>
    <edge id=":1158398629_1" function="internal">
        <lane id=":1158398629_1_0" index="0" disallow="tram rail_urban rail rail_electric rail_fast ship container cable_car subway aircraft wheelchair scooter drone" speed="22.22" length="3.01" shape="377.45,1393.67 379.56,1395.83"/>
        <lane id=":1158398629_1_1" index="1" disallow="tram rail_urban rail rail_electric rail_fast ship container cable_car subway aircraft wheelchair scooter drone" speed="22.22" length="3.01" shape="375.17,1395.91 377.27,1398.07"/>
        <lane id=":1158398629_1_2" index="2" disallow="tram rail_urban rail rail_electric rail_fast ship container cable_car subway aircraft wheelchair scooter drone" speed="22.22" length="3.01" shape="372.88,1398.15 374.98,1400.30"/>
    </edge>
    <edge id=":1158427417_0" function="internal">
        <lane id=":1158427417_0_0" index="0" disallow="tram rail_urban rail rail_electric rail_fast ship container cable_car subway aircraft wheelchair scooter drone" speed="13.41" length="3.03" shape="412.90,1387.34 412.90,1384.28"/>
        <lane id=":1158427417_0_1" index="1" disallow="tram rail_urban rail rail_electric rail_fast ship container cable_car subway aircraft wheelchair scooter drone" speed="13.41" length="3.03" shape="416.10,1387.33 416.10,1384.29"/>
        <lane id=":1158427417_0_2" index="2" disallow="tram rail_urban rail rail_electric rail_fast ship container cable_car subway aircraft wheelchair scooter drone" speed="13.41" length="3.03" shape="419.30,1387.32 419.30,1384.29"/>
        <lane id=":1158427417_0_3" index="3" disallow="tram rail_urban rail rail_electric rail_fast ship container cable_car subway aircraft wheelchair scooter drone" speed="13.41" length="3.03" shape="422.50,1387.32 422.50,1384.30"/>
        <lane id=":1158427417_0_4" index="4" disallow="tram rail_urban rail rail_electric rail_fast ship container cable_car subway aircraft wheelchair scooter drone" speed="13.41" length="3.03" shape="425.70,1387.31 425.70,1384.30"/>
    </edge>
    <edge id=":1158427417_5" function="internal">
        <lane id=":1158427417_5_0" index="0" disallow="tram rail_urban rail rail_electric rail_fast ship container cable_car subway aircraft wheelchair scooter drone" speed="4.09" length="1.94" shape="410.13,1386.00 409.72,1385.69 409.61,1385.33 409.65,1384.87 409.70,1384.28"/>
    </edge>
    <edge id=":1160471898_0" function="internal">
        <lane id=":1160471898_0_0" index="0" disallow="tram rail_urban rail rail_electric rail_fast ship container cable_car subway aircraft wheelchair scooter drone" speed="13.41" length="6.24" shape="597.40,1064.95 595.72,1064.89 594.56,1064.79 593.41,1064.78 591.75,1065.01"/>
        <lane id=":1160471898_0_1" index="1" disallow="tram rail_urban rail rail_electric rail_fast ship container cable_car subway aircraft wheelchair scooter drone" speed="13.41" length="6.24" shape="597.40,1061.75 595.55,1061.69 594.27,1061.59 593.00,1061.60 591.18,1061.86"/>
        <lane id=":1160471898_0_2" index="2" disallow="tram rail_urban rail rail_electric rail_fast ship container cable_car subway aircraft wheelchair scooter drone" speed="13.41" length="6.24" shape="597.40,1058.55 595.38,1058.49 593.98,1058.40 592.60,1058.42 590.61,1058.71"/>
    </edge>
    <edge id=":1160471898_3" function="internal">
        <lane id=":1160471898_3_0" index="0" disallow="tram rail_urban rail rail_electric rail_fast ship container cable_car subway aircraft wheelchair scooter drone" speed="13.41" length="8.50" shape="588.88,1049.20 591.50,1048.70 593.14,1047.51 594.78,1046.30 597.40,1045.75"/>
        <lane id=":1160471898_3_1" index="1" disallow="tram rail_urban rail rail_electric rail_fast ship container cable_car subway aircraft wheelchair scooter drone" speed="13.41" length="8.50" shape="589.47,1052.41 591.92,1051.91 593.43,1050.72 594.94,1049.51 597.40,1048.95"/>
        <lane id=":1160471898_3_2" index="2" disallow="tram rail_urban rail rail_electric rail_fast ship container cable_car subway aircraft wheelchair scooter drone" speed="13.41" length="8.50" shape="590.05,1055.63 592.34,1055.12 593.72,1053.92 595.11,1052.71 597.40,1052.15"/>
        <lane id=":1160471898_3_3" index="3" disallow="tram rail_urban rail rail_electric rail_fast ship container cable_car subway aircraft wheelchair scooter drone" speed="13.41" length="8.50" shape="590.05,1055.63 597.40,1055.35"/>
    </edge>
    <edge id=":11753368767_0" function="internal">
        <lane id=":11753368767_0_0" index="0" disallow="tram rail_urban rail rail_electric rail_fast ship container cable_car subway aircraft wheelchair scooter drone" speed="8.05" length="8.50" shape="629.98,172.45 628.70,170.86 627.06,169.73 625.06,169.06 622.71,168.85"/>
    </edge>
    <edge id=":11753368767_1" function="internal">
        <lane id=":11753368767_1_0" index="0" disallow="tram rail_urban rail rail_electric rail_fast ship container cable_car subway aircraft wheelchair scooter drone" speed="8.27" length="12.09" shape="629.98,172.45 628.49,169.26 628.05,166.34 628.63,163.68 630.26,161.28"/>
    </edge>
    <edge id=":11753368767_2" function="internal">
        <lane id=":11753368767_2_0" index="0" disallow="tram rail_urban rail rail_electric rail_fast ship container cable_car subway aircraft wheelchair scooter drone" speed="5.93" length="7.63" shape="632.16,163.59 631.17,166.16 630.86,168.16 631.25,169.59 632.32,170.44"/>
    </edge>
    <edge id=":11753368767_3" function="internal">
        <lane id=":11753368767_3_0" index="0" disallow="tram rail_urban rail rail_electric rail_fast ship container cable_car subway aircraft wheelchair scooter drone" speed="8.80" length="2.73" shape="632.16,163.59 630.66,165.87"/>
    </edge>
    <edge id=":11753368767_6" function="internal">
        <lane id=":11753368767_6_0" index="0" disallow="tram rail_urban rail rail_electric rail_fast ship container cable_car subway aircraft wheelchair scooter drone" speed="8.80" length="8.72" shape="630.66,165.87 628.58,167.50 625.93,168.50 622.71,168.85"/>
    </edge>
    <edge id=":11753368767_4" function="internal">
        <lane id=":11753368767_4_0" index="0" disallow="tram rail_urban rail rail_electric rail_fast ship container cable_car subway aircraft wheelchair scooter drone" speed="9.77" length="8.96" shape="622.68,165.65 624.46,165.37 626.31,164.55 628.25,163.18 630.26,161.28"/>
    </edge>
    <edge id=":11753368767_5" function="internal">
        <lane id=":11753368767_5_0" index="0" disallow="tram rail_urban rail rail_electric rail_fast ship container cable_car subway aircraft wheelchair scooter drone" speed="12.53" length="10.97" shape="622.68,165.65 625.64,166.12 627.63,167.33 629.56,168.90 632.32,170.44"/>
    </edge>
    <edge id=":11753368768_0" function="internal">
        <lane id=":11753368768_0_0" index="0" disallow="tram rail_urban rail rail_electric rail_fast ship container cable_car subway aircraft wheelchair scooter drone" speed="12.05" length="8.50" shape="648.80,169.49 646.34,169.65 644.70,170.18 643.20,171.14 641.13,172.60"/>
    </edge>
    <edge id=":11753368768_1" function="internal">
        <lane id=":11753368768_1_0" index="0" disallow="tram rail_urban rail rail_electric rail_fast ship container cable_car subway aircraft wheelchair scooter drone" speed="12.53" length="11.79" shape="648.80,169.49 645.76,168.91 643.64,167.44 641.64,165.49 639.00,163.48"/>
    </edge>
    <edge id=":11753368768_2" function="internal">
        <lane id=":11753368768_2_0" index="0" disallow="tram rail_urban rail rail_electric rail_fast ship container cable_car subway aircraft wheelchair scooter drone" speed="9.32" length="9.04" shape="641.45,161.58 643.42,163.64 645.32,165.11 647.14,166.00 648.88,166.29"/>
    </edge>
    <edge id=":11753368768_3" function="internal">
        <lane id=":11753368768_3_0" index="0" disallow="tram rail_urban rail rail_electric rail_fast ship container cable_car subway aircraft wheelchair scooter drone" speed="7.36" length="12.88" shape="641.45,161.58 643.63,164.85 644.30,167.77 643.47,170.36 641.13,172.60"/>
    </edge>
    <edge id=":11753368768_4" function="internal">
        <lane id=":11753368768_4_0" index="0" disallow="tram rail_urban rail rail_electric rail_fast ship container cable_car subway aircraft wheelchair scooter drone" speed="5.28" length="6.56" shape="638.61,168.96 639.94,167.24 640.45,165.76 640.13,164.50 639.00,163.48"/>
    </edge>
    <edge id=":11753368768_5" function="internal">
        <lane id=":11753368768_5_0" index="0" disallow="tram rail_urban rail rail_electric rail_fast ship container cable_car subway aircraft wheelchair scooter drone" speed="10.64" length="3.94" shape="638.61,168.96 640.20,167.79 642.04,167.11"/>
    </edge>
    <edge id=":11753368768_6" function="internal">
        <lane id=":11753368768_6_0" index="0" disallow="tram rail_urban rail rail_electric rail_fast ship container cable_car subway aircraft wheelchair scooter drone" speed="10.64" length="6.92" shape="642.04,167.11 642.45,166.96 645.34,166.46 648.88,166.29"/>
    </edge>
    <edge id=":11753395569_0" function="internal">
        <lane id=":11753395569_0_0" index="0" disallow="tram rail_urban rail rail_electric rail_fast ship container cable_car subway aircraft wheelchair scooter drone" speed="5.80" length="7.47" shape="638.83,163.37 636.49,162.24 634.61,161.87 633.20,162.26 632.25,163.41"/>
    </edge>
    <edge id=":11753395569_1" function="internal">
        <lane id=":11753395569_1_0" index="0" disallow="tram rail_urban rail rail_electric rail_fast ship container cable_car subway aircraft wheelchair scooter drone" speed="8.92" length="3.60" shape="638.83,163.37 636.83,161.80 636.22,160.93"/>
    </edge>
    <edge id=":11753395569_6" function="internal">
        <lane id=":11753395569_6_0" index="0" disallow="tram rail_urban rail rail_electric rail_fast ship container cable_car subway aircraft wheelchair scooter drone" speed="8.92" length="6.97" shape="636.22,160.93 635.41,159.78 634.55,157.30 634.26,154.38"/>
    </edge>
    <edge id=":11753395569_2" function="internal">
        <lane id=":11753395569_2_0" index="0" disallow="tram rail_urban rail rail_electric rail_fast ship container cable_car subway aircraft wheelchair scooter drone" speed="10.44" length="8.39" shape="637.46,154.36 637.70,156.74 638.42,158.26 639.62,159.61 641.33,161.44"/>
    </edge>
    <edge id=":11753395569_3" function="internal">
        <lane id=":11753395569_3_0" index="0" disallow="tram rail_urban rail rail_electric rail_fast ship container cable_car subway aircraft wheelchair scooter drone" speed="13.89" length="10.71" shape="637.46,154.36 636.95,157.25 635.65,159.06 633.96,160.79 632.25,163.41"/>
    </edge>
    <edge id=":11753395569_4" function="internal">
        <lane id=":11753395569_4_0" index="0" disallow="tram rail_urban rail rail_electric rail_fast ship container cable_car subway aircraft wheelchair scooter drone" speed="9.75" length="8.23" shape="630.33,161.21 632.09,159.49 633.31,158.19 634.03,156.70 634.26,154.38"/>
    </edge>
    <edge id=":11753395569_5" function="internal">
        <lane id=":11753395569_5_0" index="0" disallow="tram rail_urban rail rail_electric rail_fast ship container cable_car subway aircraft wheelchair scooter drone" speed="7.38" length="12.88" shape="630.33,161.21 633.15,158.97 635.93,158.26 638.65,159.09 641.33,161.44"/>
    </edge>
    <edge id=":1180705839_0" function="internal">
        <lane id=":1180705839_0_0" index="0" disallow="tram rail_urban rail rail_electric rail_fast ship container cable_car subway aircraft wheelchair scooter drone" speed="13.41" length="0.30" shape="294.78,702.38 294.48,702.38"/>
        <lane id=":1180705839_0_1" index="1" disallow="tram rail_urban rail rail_electric rail_fast ship container cable_car subway aircraft wheelchair scooter drone" speed="13.41" length="0.30" shape="294.78,699.18 294.48,699.18"/>
    </edge>
    <edge id=":12483479944_0" function="internal">
        <lane id=":12483479944_0_0" index="0" disallow="tram rail_urban rail rail_electric rail_fast ship container cable_car subway aircraft wheelchair scooter drone" speed="3.65" length="4.67" shape="46.10,1368.79 45.81,1367.38 46.09,1366.52 46.93,1366.24 48.35,1366.51"/>
    </edge>
    <edge id=":12771690307_0" function="internal">
        <lane id=":12771690307_0_0" index="0" disallow="tram rail_urban rail rail_electric rail_fast ship container cable_car subway aircraft wheelchair scooter drone" speed="13.41" length="2.72" shape="1391.52,1701.33 1392.84,1704.51"/>
        <lane id=":12771690307_0_1" index="1" disallow="tram rail_urban rail rail_electric rail_fast ship container cable_car subway aircraft wheelchair scooter drone" speed="13.41" length="2.72" shape="1389.29,1699.04 1390.61,1702.22"/>
        <lane id=":12771690307_0_2" index="2" disallow="tram rail_urban rail rail_electric rail_fast ship container cable_car subway aircraft wheelchair scooter drone" speed="13.41" length="2.72" shape="1389.29,1699.04 1388.38,1699.92"/>
    </edge>
    <edge id=":12771690307_3" function="internal">
        <lane id=":12771690307_3_0" index="0" disallow="tram rail_urban rail rail_electric rail_fast ship container cable_car subway aircraft wheelchair scooter drone" speed="13.41" length="1.26" shape="1383.92,1695.33 1384.83,1694.45"/>
        <lane id=":12771690307_3_1" index="1" disallow="tram rail_urban rail rail_electric rail_fast ship container cable_car subway aircraft wheelchair scooter drone" speed="13.41" length="1.26" shape="1386.15,1697.63 1387.06,1696.75"/>
    </edge>
    <edge id=":12778150853_0" function="internal">
        <lane id=":12778150853_0_0" index="0" disallow="tram rail_urban rail rail_electric rail_fast ship container cable_car subway aircraft wheelchair scooter drone" speed="3.65" length="4.67" shape="2069.29,514.34 2070.49,515.13 2070.90,515.93 2070.50,516.73 2069.30,517.54"/>
    </edge>
    <edge id=":12920646346_0" function="internal">
        <lane id=":12920646346_0_0" index="0" allow="bus bicycle" speed="5.53" length="11.26" shape="409.05,1641.65 408.71,1637.80 407.76,1636.30 406.22,1637.16 404.07,1640.37"/>
    </edge>
    <edge id=":12920646346_1" function="internal">
        <lane id=":12920646346_1_0" index="0" allow="bus bicycle" speed="27.78" length="10.92" shape="409.45,1630.87 404.07,1640.37"/>
    </edge>
    <edge id=":1586056385_0" function="internal">
        <lane id=":1586056385_0_0" index="0" disallow="tram rail_urban rail rail_electric rail_fast ship container cable_car subway aircraft wheelchair scooter drone" speed="13.41" length="17.61" shape="1619.11,1959.63 1619.06,1942.02"/>
    </edge>
    <edge id=":1586056385_1" function="internal">
        <lane id=":1586056385_1_0" index="0" disallow="tram rail_urban rail rail_electric rail_fast ship container cable_car subway aircraft wheelchair scooter drone" speed="8.67" length="4.68" shape="1619.11,1959.63 1619.84,1955.77 1620.32,1955.18"/>
    </edge>
    <edge id=":1586056385_2" function="internal">
        <lane id=":1586056385_2_0" index="0" disallow="tram rail_urban rail rail_electric rail_fast ship container cable_car subway aircraft wheelchair scooter drone" speed="3.65" length="1.44" shape="1619.11,1959.63 1619.90,1958.43"/>
    </edge>
    <edge id=":1586056385_9" function="internal">
        <lane id=":1586056385_9_0" index="0" disallow="tram rail_urban rail rail_electric rail_fast ship container cable_car subway aircraft wheelchair scooter drone" speed="8.67" length="12.17" shape="1620.32,1955.18 1622.09,1953.02 1625.83,1951.36 1631.08,1950.80"/>