<?xml version="1.0" encoding="UTF-8"?>

<!-- generated on 2025-12-21 08:57:39 by Eclipse SUMO netconvert Version 1.23.1
<netconvertConfiguration xmlns:xsi="http://www.w3.org/2001/XMLSchema-instance" xsi:noNamespaceSchemaLocation="http://sumo.dlr.de/xsd/netconvertConfiguration.xsd">

    <input>
        <osm-files value="/home/dmmsjtu/Desktop/TeraSim-main/packages/terasim-envgen/terasim_envgen/core/urban_construcion_zone/scenes/scene_39.7392_-104.9903_2000/map.osm"/>
    </input>

    <output>
        <output-file value="/home/dmmsjtu/Desktop/TeraSim-main/packages/terasim-envgen/terasim_envgen/core/urban_construcion_zone/scenes/scene_39.7392_-104.9903_2000/map.net.xml"/>
    </output>

    <projection>
        <proj.utm value="true"/>
    </projection>

    <processing>
        <geometry.remove value="true"/>
        <roundabouts.guess value="true"/>
    </processing>

    <tls_building>
        <tls.guess value="true"/>
    </tls_building>

    <ramp_guessing>
        <ramps.guess value="true"/>
    </ramp_guessing>

    <junctions>
        <junctions.join value="true"/>
    </junctions>

</netconvertConfiguration>
-->

<net version="1.20" junctionCornerDetail="5" limitTurnSpeed="5.50" xmlns:xsi="http://www.w3.org/2001/XMLSchema-instance" xsi:noNamespaceSchemaLocation="http://sumo.dlr.de/xsd/net_file.xsd">

    <location netOffset="-499768.75,-4397685.43" convBoundary="0.00,0.00,2103.69,2200.38" origBoundary="-105.002699,39.729053,-104.978147,39.748879" projParameter="+proj=utm +zone=13 +ellps=WGS84 +datum=WGS84 +units=m +no_defs"/>

    <type id="highway.busway" priority="1" numLanes="1" speed="27.78" allow="bus" oneway="1"/>
    <type id="highway.primary" priority="12" numLanes="2" speed="27.78" disallow="tram rail_urban rail rail_electric rail_fast ship container cable_car subway aircraft wheelchair scooter drone" oneway="0"/>
    <type id="highway.primary_link" priority="7" numLanes="1" speed="22.22" disallow="tram rail_urban rail rail_electric rail_fast ship container cable_car subway aircraft wheelchair scooter drone" oneway="0"/>
    <type id="highway.residential" priority="3" numLanes="1" speed="13.89" disallow="tram rail_urban rail rail_electric rail_fast ship container cable_car subway aircraft wheelchair scooter drone" oneway="0"/>
    <type id="highway.secondary" priority="11" numLanes="1" speed="27.78" disallow="tram rail_urban rail rail_electric rail_fast ship container cable_car subway aircraft wheelchair scooter drone" oneway="0"/>
    <type id="highway.secondary_link" priority="6" numLanes="1" speed="22.22" disallow="tram rail_urban rail rail_electric rail_fast ship container cable_car subway aircraft wheelchair scooter drone" oneway="0"/>
    <type id="highway.tertiary" priority="10" numLanes="1" speed="22.22" disallow="tram rail_urban rail rail_electric rail_fast ship container cable_car subway aircraft wheelchair scooter drone" oneway="0"/>
    <type id="highway.tertiary_link" priority="5" numLanes="1" speed="22.22" disallow="tram rail_urban rail rail_electric rail_fast ship container cable_car subway aircraft wheelchair scooter drone" oneway="0"/>
    <type id="highway.unclassified" priority="4" numLanes="1" speed="13.89" disallow="tram rail_urban rail rail_electric rail_fast ship container cable_car subway aircraft wheelchair scooter drone" oneway="0"/>

    <edge id=":1024425736_0" function="internal">
        <lane id=":1024425736_0_0" index="0" disallow="tram rail_urban rail rail_electric rail_fast ship container cable_car subway aircraft wheelchair scooter drone" speed="11.18" length="8.22" shape="217.50,1380.78 216.28,1378.36 214.40,1377.17 212.60,1375.96 211.59,1373.51"/>
        <lane id=":1024425736_0_1" index="1" disallow="tram rail_urban rail rail_electric rail_fast ship container cable_car subway aircraft wheelchair scooter drone" speed="11.18" length="8.22" shape="217.50,1380.78 216.82,1378.48 216.01,1377.00 215.27,1375.50 214.78,1373.18"/>
        <lane id=":1024425736_0_2" index="2" disallow="tram rail_urban rail rail_electric rail_fast ship container cable_car subway aircraft wheelchair scooter drone" speed="11.18" length="8.22" shape="217.50,1380.78 217.32,1378.45 217.61,1376.83 217.96,1375.21 217.96,1372.85"/>
        <lane id=":1024425736_0_3" index="3" disallow="tram rail_urban rail rail_electric rail_fast ship container cable_car subway aircraft wheelchair scooter drone" speed="11.18" length="8.22" shape="220.64,1380.19 220.48,1377.93 220.78,1376.37 221.13,1374.80 221.14,1372.52"/>
        <lane id=":1024425736_0_4" index="4" disallow="tram rail_urban rail rail_electric rail_fast ship container cable_car subway aircraft wheelchair scooter drone" speed="11.18" length="8.22" shape="223.79,1379.60 223.64,1377.42 223.94,1375.91 224.31,1374.39 224.33,1372.19"/>
    </edge>
    <edge id=":1024425824_0" function="internal">
        <lane id=":1024425824_0_0" index="0" disallow="tram rail_urban rail rail_electric rail_fast ship container cable_car subway aircraft wheelchair scooter drone" speed="5.77" length="9.23" shape="294.78,1484.92 292.62,1483.26 290.75,1482.96 289.19,1484.02 287.94,1486.44"/>
        <lane id=":1024425824_0_1" index="1" disallow="tram rail_urban rail rail_electric rail_fast ship container cable_car subway aircraft wheelchair scooter drone" speed="6.67" length="12.82" shape="294.78,1484.92 291.49,1482.25 288.75,1481.42 286.57,1482.45 284.94,1485.32"/>
    </edge>
    <edge id=":1024425824_2" function="internal">
        <lane id=":1024425824_2_0" index="0" disallow="tram rail_urban rail rail_electric rail_fast ship container cable_car subway aircraft wheelchair scooter drone" speed="11.18" length="22.40" shape="294.78,1484.92 278.82,1469.22"/>
        <lane id=":1024425824_2_1" index="1" disallow="tram rail_urban rail rail_electric rail_fast ship container cable_car subway aircraft wheelchair scooter drone" speed="11.18" length="22.40" shape="297.03,1482.64 281.06,1466.93"/>
        <lane id=":1024425824_2_2" index="2" disallow="tram rail_urban rail rail_electric rail_fast ship container cable_car subway aircraft wheelchair scooter drone" speed="11.18" length="22.40" shape="299.28,1480.37 283.30,1464.65"/>
    </edge>
    <edge id=":1024425824_5" function="internal">
        <lane id=":1024425824_5_0" index="0" disallow="tram rail_urban rail rail_electric rail_fast ship container cable_car subway aircraft wheelchair scooter drone" speed="15.65" length="23.94" shape="296.55,1464.24 287.94,1486.44"/>
        <lane id=":1024425824_5_1" index="1" disallow="tram rail_urban rail rail_electric rail_fast ship container cable_car subway aircraft wheelchair scooter drone" speed="15.65" length="23.94" shape="293.58,1463.04 284.94,1485.32"/>
        <lane id=":1024425824_5_2" index="2" disallow="tram rail_urban rail rail_electric rail_fast ship container cable_car subway aircraft wheelchair scooter drone" speed="15.65" length="23.94" shape="290.62,1461.84 281.94,1484.20"/>
        <lane id=":1024425824_5_3" index="3" disallow="tram rail_urban rail rail_electric rail_fast ship container cable_car subway aircraft wheelchair scooter drone" speed="15.65" length="23.94" shape="287.65,1460.64 278.95,1483.08"/>
    </edge>
    <edge id=":1024425824_9" function="internal">
        <lane id=":1024425824_9_0" index="0" disallow="tram rail_urban rail rail_electric rail_fast ship container cable_car subway aircraft wheelchair scooter drone" speed="6.20" length="10.54" shape="287.65,1460.64 285.86,1464.46 284.16,1466.78 282.56,1467.60 281.06,1466.93"/>
        <lane id=":1024425824_9_1" index="1" disallow="tram rail_urban rail rail_electric rail_fast ship container cable_car subway aircraft wheelchair scooter drone" speed="5.17" length="6.88" shape="287.65,1460.64 286.48,1463.11 285.37,1464.60 284.31,1465.12 283.30,1464.65"/>
    </edge>
    <edge id=":1024442654_0" function="internal">
        <lane id=":1024442654_0_0" index="0" disallow="tram rail_urban rail rail_electric rail_fast ship container cable_car subway aircraft wheelchair scooter drone" speed="13.41" length="3.17" shape="177.82,1239.61 174.70,1239.40"/>
        <lane id=":1024442654_0_1" index="1" disallow="tram rail_urban rail rail_electric rail_fast ship container cable_car subway aircraft wheelchair scooter drone" speed="13.41" length="3.17" shape="178.05,1236.42 174.89,1236.20"/>
        <lane id=":1024442654_0_2" index="2" disallow="tram rail_urban rail rail_electric rail_fast ship container cable_car subway aircraft wheelchair scooter drone" speed="13.41" length="3.17" shape="178.28,1233.22 175.09,1233.01"/>
    </edge>
    <edge id=":1024442654_3" function="internal">
        <lane id=":1024442654_3_0" index="0" disallow="tram rail_urban rail rail_electric rail_fast ship container cable_car subway aircraft wheelchair scooter drone" speed="17.82" length="3.09" shape="177.59,1242.76 174.50,1242.59"/>
    </edge>
    <edge id=":1024452641_0" function="internal">
        <lane id=":1024452641_0_0" index="0" disallow="tram rail_urban rail rail_electric rail_fast ship container cable_car subway aircraft wheelchair scooter drone" speed="6.53" length="9.05" shape="97.20,1208.48 97.55,1210.94 98.59,1212.71 100.33,1213.78 102.78,1214.15"/>
    </edge>
    <edge id=":1024452641_1" function="internal">
        <lane id=":1024452641_1_0" index="0" disallow="tram rail_urban rail rail_electric rail_fast ship container cable_car subway aircraft wheelchair scooter drone" speed="3.65" length="1.44" shape="97.20,1208.48 96.40,1209.68"/>
    </edge>
    <edge id=":1024452641_6" function="internal">
        <lane id=":1024452641_6_0" index="0" disallow="tram rail_urban rail rail_electric rail_fast ship container cable_car subway aircraft wheelchair scooter drone" speed="3.65" length="3.23" shape="96.40,1209.68 95.60,1210.08 94.80,1209.67 94.00,1208.47"/>
    </edge>
    <edge id=":1024452641_2" function="internal">
        <lane id=":1024452641_2_0" index="0" disallow="tram rail_urban rail rail_electric rail_fast ship container cable_car subway aircraft wheelchair scooter drone" speed="6.50" length="9.03" shape="88.38,1214.05 90.84,1213.71 92.59,1212.67 93.65,1210.92 94.00,1208.47"/>
    </edge>
    <edge id=":1024452641_3" function="internal">
        <lane id=":1024452641_3_0" index="0" disallow="tram rail_urban rail rail_electric rail_fast ship container cable_car subway aircraft wheelchair scooter drone" speed="13.41" length="14.38" shape="88.38,1214.05 102.78,1214.15"/>
        <lane id=":1024452641_3_1" index="1" disallow="tram rail_urban rail rail_electric rail_fast ship container cable_car subway aircraft wheelchair scooter drone" speed="13.41" length="14.38" shape="88.37,1217.25 102.75,1217.35"/>
        <lane id=":1024452641_3_2" index="2" disallow="tram rail_urban rail rail_electric rail_fast ship container cable_car subway aircraft wheelchair scooter drone" speed="13.41" length="14.38" shape="88.35,1220.45 102.72,1220.55"/>
    </edge>
    <edge id=":1044852297_0" function="internal">
        <lane id=":1044852297_0_0" index="0" disallow="tram rail_urban rail rail_electric rail_fast ship container cable_car subway aircraft wheelchair scooter drone" speed="3.65" length="4.67" shape="1054.07,127.91 1054.12,126.46 1054.59,125.70 1055.48,125.62 1056.80,126.22"/>
    </edge>
    <edge id=":1044871385_0" function="internal">
        <lane id=":1044871385_0_0" index="0" disallow="tram rail_urban rail rail_electric rail_fast ship container cable_car subway aircraft wheelchair scooter drone" speed="22.22" length="16.88" shape="944.52,340.80 944.58,336.72 944.60,332.28 944.23,327.91 943.15,324.08"/>
    </edge>
    <edge id=":1044871385_1" function="internal">
        <lane id=":1044871385_1_0" index="0" disallow="tram rail_urban rail rail_electric rail_fast ship container cable_car subway aircraft wheelchair scooter drone" speed="7.98" length="4.35" shape="944.52,340.80 945.04,336.93 945.27,336.55"/>
    </edge>
    <edge id=":1044871385_2" function="internal">
        <lane id=":1044871385_2_0" index="0" disallow="tram rail_urban rail rail_electric rail_fast ship container cable_car subway aircraft wheelchair scooter drone" speed="3.65" length="1.44" shape="944.52,340.80 945.31,339.60"/>
    </edge>
    <edge id=":1044871385_9" function="internal">
        <lane id=":1044871385_9_0" index="0" disallow="tram rail_urban rail rail_electric rail_fast ship container cable_car subway aircraft wheelchair scooter drone" speed="7.98" length="9.89" shape="945.27,336.55 946.68,334.17 949.43,332.51 953.30,331.97"/>
    </edge>
    <edge id=":1044871385_10" function="internal">
        <lane id=":1044871385_10_0" index="0" disallow="tram rail_urban rail rail_electric rail_fast ship container cable_car subway aircraft wheelchair scooter drone" speed="3.65" length="3.23" shape="945.31,339.60 946.11,339.19 946.91,339.58 947.72,340.77"/>
    </edge>
    <edge id=":1044871385_3" function="internal">
        <lane id=":1044871385_3_0" index="0" disallow="tram rail_urban rail rail_electric rail_fast ship container cable_car subway aircraft wheelchair scooter drone" speed="6.48" length="9.03" shape="953.29,335.17 950.84,335.52 949.09,336.56 948.05,338.32 947.72,340.77"/>
    </edge>
    <edge id=":1044871385_4" function="internal">
        <lane id=":1044871385_4_0" index="0" disallow="tram rail_urban rail rail_electric rail_fast ship container cable_car subway aircraft wheelchair scooter drone" speed="10.12" length="15.68" shape="953.29,335.17 950.74,334.47 948.20,332.39 945.67,328.93 943.15,324.08"/>
    </edge>
    <edge id=":1044871385_5" function="internal">
        <lane id=":1044871385_5_0" index="0" disallow="tram rail_urban rail rail_electric rail_fast ship container cable_car subway aircraft wheelchair scooter drone" speed="3.65" length="4.67" shape="953.29,335.17 952.09,334.37 951.70,333.57 952.10,332.77 953.30,331.97"/>
    </edge>
    <edge id=":1044871385_6" function="internal">
        <lane id=":1044871385_6_0" index="0" disallow="tram rail_urban rail rail_electric rail_fast ship container cable_car subway aircraft wheelchair scooter drone" speed="7.01" length="10.73" shape="948.16,323.98 948.44,327.47 949.39,329.97 951.01,331.47 953.30,331.97"/>
    </edge>
    <edge id=":1044871385_7" function="internal">
        <lane id=":1044871385_7_0" index="0" disallow="tram rail_urban rail rail_electric rail_fast ship container cable_car subway aircraft wheelchair scooter drone" speed="22.22" length="16.80" shape="948.16,323.98 947.72,340.77"/>
    </edge>
    <edge id=":1044871385_8" function="internal">
        <lane id=":1044871385_8_0" index="0" disallow="tram rail_urban rail rail_electric rail_fast ship container cable_car subway aircraft wheelchair scooter drone" speed="5.68" length="6.16" shape="948.16,323.98 947.79,328.05 946.84,329.43 946.54,329.17"/>
    </edge>
    <edge id=":1044871385_11" function="internal">
        <lane id=":1044871385_11_0" index="0" disallow="tram rail_urban rail rail_electric rail_fast ship container cable_car subway aircraft wheelchair scooter drone" speed="5.68" length="6.19" shape="946.54,329.17 945.29,328.10 943.15,324.08"/>
    </edge>
    <edge id=":1044871533_0" function="internal">
        <lane id=":1044871533_0_0" index="0" disallow="tram rail_urban rail rail_electric rail_fast ship container cable_car subway aircraft wheelchair scooter drone" speed="6.85" length="9.08" shape="930.79,289.75 929.98,291.93 930.05,293.98 931.01,295.89 932.85,297.67"/>
    </edge>
    <edge id=":1044871533_1" function="internal">
        <lane id=":1044871533_1_0" index="0" disallow="tram rail_urban rail rail_electric rail_fast ship container cable_car subway aircraft wheelchair scooter drone" speed="15.65" length="11.24" shape="930.79,289.75 925.36,299.56"/>
        <lane id=":1044871533_1_1" index="1" disallow="tram rail_urban rail rail_electric rail_fast ship container cable_car subway aircraft wheelchair scooter drone" speed="15.65" length="11.24" shape="927.99,288.19 922.56,298.02"/>
        <lane id=":1044871533_1_2" index="2" disallow="tram rail_urban rail rail_electric rail_fast ship container cable_car subway aircraft wheelchair scooter drone" speed="15.65" length="11.24" shape="925.20,286.63 919.75,296.48"/>
        <lane id=":1044871533_1_3" index="3" disallow="tram rail_urban rail rail_electric rail_fast ship container cable_car subway aircraft wheelchair scooter drone" speed="15.65" length="11.24" shape="922.40,285.08 916.95,294.93"/>
    </edge>
    <edge id=":1044896061_0" function="internal">
        <lane id=":1044896061_0_0" index="0" disallow="tram rail_urban rail rail_electric rail_fast ship container cable_car subway aircraft wheelchair scooter drone" speed="16.70" length="7.89" shape="662.36,516.05 654.46,515.95"/>
    </edge>
    <edge id=":1044896061_1" function="internal">
        <lane id=":1044896061_1_0" index="0" disallow="tram rail_urban rail rail_electric rail_fast ship container cable_car subway aircraft wheelchair scooter drone" speed="11.18" length="8.54" shape="654.45,512.75 656.99,512.25 658.60,511.18 660.22,510.16 662.75,509.82"/>
        <lane id=":1044896061_1_1" index="1" disallow="tram rail_urban rail rail_electric rail_fast ship container cable_car subway aircraft wheelchair scooter drone" speed="11.18" length="8.54" shape="654.45,512.75 662.55,513.01"/>
    </edge>
    <edge id=":1106568524_0" function="internal">
        <lane id=":1106568524_0_0" index="0" disallow="tram rail_urban rail rail_electric rail_fast ship container cable_car subway aircraft wheelchair scooter drone" speed="11.18" length="8.21" shape="216.90,1151.48 216.65,1149.08 216.11,1147.48 215.56,1145.88 215.32,1143.48"/>
        <lane id=":1106568524_0_1" index="1" disallow="tram rail_urban rail rail_electric rail_fast ship container cable_car subway aircraft wheelchair scooter drone" speed="11.18" length="8.21" shape="220.10,1151.49 219.85,1149.09 219.31,1147.49 218.76,1145.88 218.52,1143.48"/>
        <lane id=":1106568524_0_2" index="2" disallow="tram rail_urban rail rail_electric rail_fast ship container cable_car subway aircraft wheelchair scooter drone" speed="11.18" length="8.21" shape="223.30,1151.49 223.05,1149.10 222.51,1147.49 221.96,1145.89 221.72,1143.49"/>
    </edge>
    <edge id=":11080825962_0" function="internal">
        <lane id=":11080825962_0_0" index="0" disallow="tram rail_urban rail rail_electric rail_fast ship container cable_car subway aircraft wheelchair scooter drone" speed="3.65" length="4.67" shape="555.95,1313.72 554.54,1314.02 553.68,1313.75 553.39,1312.91 553.65,1311.49"/>
    </edge>
    <edge id=":11334772686_0" function="internal">
        <lane id=":11334772686_0_0" index="0" disallow="tram rail_urban rail rail_electric rail_fast ship container cable_car subway aircraft wheelchair scooter drone" speed="3.65" length="4.67" shape="182.80,1342.54 182.12,1341.26 182.15,1340.37 182.88,1339.86 184.32,1339.72"/>
    </edge>
    <edge id=":11334772687_0" function="internal">
        <lane id=":11334772687_0_0" index="0" disallow="tram rail_urban rail rail_electric rail_fast ship container cable_car subway aircraft wheelchair scooter drone" speed="13.89" length="14.40" shape="197.70,1340.76 190.47,1353.22"/>
    </edge>
    <edge id=":11334772687_1" function="internal">
        <lane id=":11334772687_1_0" index="0" disallow="tram rail_urban rail rail_electric rail_fast ship container cable_car subway aircraft wheelchair scooter drone" speed="8.10" length="4.02" shape="197.70,1340.76 195.31,1343.77 195.16,1343.86"/>
    </edge>
    <edge id=":11334772687_2" function="internal">
        <lane id=":11334772687_2_0" index="0" disallow="tram rail_urban rail rail_electric rail_fast ship container cable_car subway aircraft wheelchair scooter drone" speed="3.65" length="1.44" shape="197.70,1340.76 196.41,1341.40"/>
    </edge>
    <edge id=":11334772687_9" function="internal">
        <lane id=":11334772687_9_0" index="0" disallow="tram rail_urban rail rail_electric rail_fast ship container cable_car subway aircraft wheelchair scooter drone" speed="8.10" length="10.22" shape="195.16,1343.86 192.50,1345.32 189.25,1345.41 185.57,1344.04"/>
    </edge>
    <edge id=":11334772687_10" function="internal">
        <lane id=":11334772687_10_0" index="0" disallow="tram rail_urban rail rail_electric rail_fast ship container cable_car subway aircraft wheelchair scooter drone" speed="3.65" length="3.23" shape="196.41,1341.40 195.51,1341.34 195.02,1340.59 194.93,1339.15"/>
    </edge>
    <edge id=":11334772687_3" function="internal">
        <lane id=":11334772687_3_0" index="0" disallow="tram rail_urban rail rail_electric rail_fast ship container cable_car subway aircraft wheelchair scooter drone" speed="6.62" length="9.18" shape="187.09,1341.22 189.48,1342.12 191.58,1342.07 193.40,1341.08 194.93,1339.15"/>
    </edge>
    <edge id=":11334772687_4" function="internal">
        <lane id=":11334772687_4_0" index="0" disallow="tram rail_urban rail rail_electric rail_fast ship container cable_car subway aircraft wheelchair scooter drone" speed="7.95" length="14.31" shape="187.09,1341.22 190.26,1343.57 191.87,1346.35 191.95,1349.57 190.47,1353.22"/>
    </edge>
    <edge id=":11334772687_5" function="internal">
        <lane id=":11334772687_5_0" index="0" disallow="tram rail_urban rail rail_electric rail_fast ship container cable_car subway aircraft wheelchair scooter drone" speed="3.65" length="4.67" shape="187.09,1341.22 187.77,1342.50 187.74,1343.39 187.01,1343.91 185.57,1344.04"/>
    </edge>
    <edge id=":11334772687_6" function="internal">
        <lane id=":11334772687_6_0" index="0" disallow="tram rail_urban rail rail_electric rail_fast ship container cable_car subway aircraft wheelchair scooter drone" speed="6.44" length="9.03" shape="187.71,1351.61 188.64,1349.31 188.59,1347.28 187.57,1345.52 185.57,1344.04"/>
    </edge>
    <edge id=":11334772687_7" function="internal">
        <lane id=":11334772687_7_0" index="0" disallow="tram rail_urban rail rail_electric rail_fast ship container cable_car subway aircraft wheelchair scooter drone" speed="13.89" length="14.40" shape="187.71,1351.61 194.93,1339.15"/>
    </edge>
    <edge id=":11334772687_8" function="internal">
        <lane id=":11334772687_8_0" index="0" disallow="tram rail_urban rail rail_electric rail_fast ship container cable_car subway aircraft wheelchair scooter drone" speed="3.65" length="1.44" shape="187.71,1351.61 189.00,1350.98"/>
    </edge>
    <edge id=":11334772687_11" function="internal">
        <lane id=":11334772687_11_0" index="0" disallow="tram rail_urban rail rail_electric rail_fast ship container cable_car subway aircraft wheelchair scooter drone" speed="3.65" length="3.23" shape="189.00,1350.98 189.89,1351.03 190.38,1351.78 190.47,1353.22"/>
    </edge>
    <edge id=":1158398629_0" function="internal">
        <lane id=":1158398629_0_0" index="0" disallow="tram rail_urban rail rail_electric rail_fast ship container cable_car subway aircraft wheelchair scooter drone" speed="6.92" length="2.49" shape="1271.72,1556.16 1272.24,1556.69 1272.57,1557.08 1272.79,1557.54 1272.97,1558.24"/>
    </edge>
    <edge id=":1158398629_1" function="internal">
        <lane id=":1158398629_1_0" index="0" disallow="tram rail_urban rail rail_electric rail_fast ship container cable_car subway aircraft wheelchair scooter drone" speed="22.22" length="3.01" shape="1269.43,1558.40 1271.54,1560.56"/>
        <lane id=":1158398629_1_1" index="1" disallow="tram rail_urban rail rail_electric rail_fast ship container cable_car subway aircraft wheelchair scooter drone" speed="22.22" length="3.01" shape="1267.15,1560.64 1269.25,1562.80"/>
        <lane id=":1158398629_1_2" index="2" disallow="tram rail_urban rail rail_electric rail_fast ship container cable_car subway aircraft wheelchair scooter drone" speed="22.22" length="3.01" shape="1264.86,1562.88 1266.96,1565.03"/>
    </edge>
    <edge id=":1158427417_0" function="internal">
        <lane id=":1158427417_0_0" index="0" disallow="tram rail_urban rail rail_electric rail_fast ship container cable_car subway aircraft wheelchair scooter drone" speed="13.41" length="3.03" shape="1304.88,1552.06 1304.88,1549.01"/>
        <lane id=":1158427417_0_1" index="1" disallow="tram rail_urban rail rail_electric rail_fast ship container cable_car subway aircraft wheelchair scooter drone" speed="13.41" length="3.03" shape="1308.08,1552.06 1308.08,1549.02"/>
        <lane id=":1158427417_0_2" index="2" disallow="tram rail_urban rail rail_electric rail_fast ship container cable_car subway aircraft wheelchair scooter drone" speed="13.41" length="3.03" shape="1311.28,1552.05 1311.28,1549.02"/>
        <lane id=":1158427417_0_3" index="3" disallow="tram rail_urban rail rail_electric rail_fast ship container cable_car subway aircraft wheelchair scooter drone" speed="13.41" length="3.03" shape="1314.48,1552.05 1314.48,1549.03"/>
        <lane id=":1158427417_0_4" index="4" disallow="tram rail_urban rail rail_electric rail_fast ship container cable_car subway aircraft wheelchair scooter drone" speed="13.41" length="3.03" shape="1317.68,1552.04 1317.68,1549.03"/>
    </edge>
    <edge id=":1158427417_5" function="internal">
        <lane id=":1158427417_5_0" index="0" disallow="tram rail_urban rail rail_electric rail_fast ship container cable_car subway aircraft wheelchair scooter drone" speed="4.09" length="1.94" shape="1302.11,1550.73 1301.70,1550.42 1301.59,1550.06 1301.63,1549.59 1301.68,1549.00"/>
    </edge>
    <edge id=":1160471898_0" function="internal">
        <lane id=":1160471898_0_0" index="0" disallow="tram rail_urban rail rail_electric rail_fast ship container cable_car subway aircraft wheelchair scooter drone" speed="13.41" length="6.24" shape="1489.38,1229.68 1487.70,1229.62 1486.54,1229.51 1485.39,1229.51 1483.73,1229.74"/>
        <lane id=":1160471898_0_1" index="1" disallow="tram rail_urban rail rail_electric rail_fast ship container cable_car subway aircraft wheelchair scooter drone" speed="13.41" length="6.24" shape="1489.38,1226.48 1487.53,1226.42 1486.25,1226.32 1484.99,1226.33 1483.16,1226.59"/>
        <lane id=":1160471898_0_2" index="2" disallow="tram rail_urban rail rail_electric rail_fast ship container cable_car subway aircraft wheelchair scooter drone" speed="13.41" length="6.24" shape="1489.38,1223.28 1487.36,1223.22 1485.96,1223.13 1484.58,1223.15 1482.59,1223.44"/>
    </edge>
    <edge id=":1160471898_3" function="internal">
        <lane id=":1160471898_3_0" index="0" disallow="tram rail_urban rail rail_electric rail_fast ship container cable_car subway aircraft wheelchair scooter drone" speed="13.41" length="8.50" shape="1480.86,1213.92 1483.49,1213.43 1485.12,1212.24 1486.76,1211.03 1489.38,1210.48"/>
        <lane id=":1160471898_3_1" index="1" disallow="tram rail_urban rail rail_electric rail_fast ship container cable_car subway aircraft wheelchair scooter drone" speed="13.41" length="8.50" shape="1481.45,1217.14 1483.90,1216.64 1485.41,1215.45 1486.92,1214.23 1489.38,1213.68"/>
        <lane id=":1160471898_3_2" index="2" disallow="tram rail_urban rail rail_electric rail_fast ship container cable_car subway aircraft wheelchair scooter drone" speed="13.41" length="8.50" shape="1482.03,1220.35 1484.32,1219.85 1485.70,1218.65 1487.09,1217.44 1489.38,1216.88"/>
        <lane id=":1160471898_3_3" index="3" disallow="tram rail_urban rail rail_electric rail_fast ship container cable_car subway aircraft wheelchair scooter drone" speed="13.41" length="8.50" shape="1482.03,1220.35 1489.38,1220.08"/>
    </edge>
    <edge id=":11753368767_0" function="internal">
        <lane id=":11753368767_0_0" index="0" disallow="tram rail_urban rail rail_electric rail_fast ship container cable_car subway aircraft wheelchair scooter drone" speed="8.05" length="8.50" shape="1521.96,337.18 1520.68,335.59 1519.04,334.46 1517.04,333.79 1514.69,333.58"/>
    </edge>
    <edge id=":11753368767_1" function="internal">
        <lane id=":11753368767_1_0" index="0" disallow="tram rail_urban rail rail_electric rail_fast ship container cable_car subway aircraft wheelchair scooter drone" speed="8.27" length="12.09" shape="1521.96,337.18 1520.47,333.99 1520.03,331.07 1520.61,328.41 1522.24,326.01"/>
    </edge>
    <edge id=":11753368767_2" function="internal">
        <lane id=":11753368767_2_0" index="0" disallow="tram rail_urban rail rail_electric rail_fast ship container cable_car subway aircraft wheelchair scooter drone" speed="5.93" length="7.63" shape="1524.14,328.32 1523.15,330.89 1522.84,332.89 1523.23,334.32 1524.30,335.17"/>
    </edge>
    <edge id=":11753368767_3" function="internal">
        <lane id=":11753368767_3_0" index="0" disallow="tram rail_urban rail rail_electric rail_fast ship container cable_car subway aircraft wheelchair scooter drone" speed="8.80" length="2.73" shape="1524.14,328.32 1522.64,330.60"/>
    </edge>
    <edge id=":11753368767_6" function="internal">
        <lane id=":11753368767_6_0" index="0" disallow="tram rail_urban rail rail_electric rail_fast ship container cable_car subway aircraft wheelchair scooter drone" speed="8.80" length="8.72" shape="1522.64,330.60 1520.56,332.23 1517.91,333.23 1514.69,333.58"/>
    </edge>
    <edge id=":11753368767_4" function="internal">
        <lane id=":11753368767_4_0" index="0" disallow="tram rail_urban rail rail_electric rail_fast ship container cable_car subway aircraft wheelchair scooter drone" speed="9.77" length="8.96" shape="1514.66,330.38 1516.44,330.10 1518.29,329.27 1520.23,327.91 1522.24,326.01"/>
    </edge>
    <edge id=":11753368767_5" function="internal">
        <lane id=":11753368767_5_0" index="0" disallow="tram rail_urban rail rail_electric rail_fast ship container cable_car subway aircraft wheelchair scooter drone" speed="12.53" length="10.97" shape="1514.66,330.38 1517.62,330.85 1519.61,332.06 1521.54,333.63 1524.30,335.17"/>
    </edge>
    <edge id=":11753368768_0" function="internal">