<?xml version="1.0" encoding="UTF-8"?>
<!-- Empty routes file - no background traffic, only construction cones added dynamically -->
<routes xmlns:xsi="http://www.w3.org/2001/XMLSchema-instance" xsi:noNamespaceSchemaLocation="http://sumo.dlr.de/xsd/routes_file.xsd">
    <!-- No vehicles defined - construction cones will be added dynamically via TraCI -->
</routes>
