<?xml version="1.0" encoding="UTF-8"?>

<!-- generated on 2025-11-03 11:56:37 by Eclipse SUMO duarouter Version 1.23.1
<duarouterConfiguration xmlns:xsi="http://www.w3.org/2001/XMLSchema-instance" xsi:noNamespaceSchemaLocation="http://sumo.dlr.de/xsd/duarouterConfiguration.xsd">

    <input>
        <net-file value="map.net.xml"/>
        <route-files value="trips.trips.xml"/>
    </input>

    <output>
        <output-file value="routes.rou.xml"/>
    </output>

</duarouterConfiguration>
-->

<routes xmlns:xsi="http://www.w3.org/2001/XMLSchema-instance" xsi:noNamespaceSchemaLocation="http://sumo.dlr.de/xsd/routes_file.xsd">
    <vehicle id="0" depart="1.00">
        <route edges="-8725020 -1366096024#0 -524953522#1 -524953522#0 -442031943 -1161778295#1 -1161778295#0 -213562378 -8725599 -441598620 -225623131#2 394732361#0 1172436049 1172436052 441598649 608385950 8726969 8727270 441598625#0 1316745045 441598627 8722107 9257827 9257814 441598604 530480505 8728383 441598616 9257823 441598608#0 441598605#0 1316745044 1316745043 441598610 9257825 441598607 441598617 411638815"/>
    </vehicle>
    <vehicle id="1" depart="2.00">
        <route edges="8723579 1049829113 1049829109#3 1049829109#4 1049829109#5 1049829109#0 1049829109#1 1049829114 -8723579 8733979 441598643 897491922 897491921 441142717 -413189665#1 -441142712 -441142710#4 -441142710#3 -1065681384 -8729623#1 -8729623#0"/>
    </vehicle>
    <vehicle id="2" depart="2.00">
        <route edges="263565979#0 -263565979#0 263565977 -222784532#0 222784531#0 222784531#1 -440957904#2 -440957904#0 -683686104#0 -682103160 -682103161 440954789#0 440954789#1 541603623 1162289088 1007490224 1007490218 1007490219 541603629 -512575039 -440954792#6 -440954792#5 -440954792#4 -440954792#3 -440954792#2 -440954792#0 -682245585 -682245586 -412658464 -440946835 -413150937#1 -413150938#0 -440946830 -412658466 -441386533 -411670856 -411728065 -441386535 -225624374 -441386536#2 -441386536#0 -413139429#1 -413139429#0 -225624376#3 -225624376#2 -225624376#0 -413139434#2 -413139434#0 -8733053 -441612494#2 -441612494#1 -441612494#0 -8725777#4 -8725777#3 -8725777#2 8734353#0 8734353#1 8734353#2 8734353#3 8732163"/>
    </vehicle>
    <vehicle id="3" depart="4.00">
        <route edges="8722461#0 8722461#1 8722461#2 8724572#1 8724572#2 223282999#0 441598625#0 1316745045 441598627 8722107 9257827 9257814 441598604 530480505 8728383 441598616 9257823 441598608#0 441598605#0 1316745044 1316745043 441598610 9257825 441598566 222786837#0 222786837#1 222786837#2 1316743030#0 1316743030#1 222786842 441142718 412646494 412647186 441142719#1 412647185 441190747 897491919 441190742#0 8731162 441190744 1162299121 488384558 1077352388 142178746 1077352385 1442199158 -1162299116 488384569 1442406162 1442199161 1442199166 1442406160 1442199162 1442199157#0 142178750#0 142178750#1 440954797#0 440954797#1 440954796 222784527#0 222784527#1 222784527#2 -512866826#5 -512866823#1 -512866822#1 -512866822#0 512866822#0 512866822#1"/>
    </vehicle>
    <vehicle id="4" depart="4.00">
        <route edges="8729638 -441142710#1 -412448865#1 -441142722 -414845168#2 -414845168#1 -414845168#0 -414845169#2 -414845169#1 -1395130849 -1395130850 899877906#0 899877906#1 933652367#0 933652367#1"/>
    </vehicle>
    <vehicle id="5" depart="5.00">
        <route edges="587974959 -824633597#2 -824633597#1 -824633597#0 1122219140 234811371 509868072 12388871#0 12388871#1 512264996#0 394732361#0 1172436049 1172436052 441598649 608385950 8726969 8727270 441598625#0 1316745045 441598627 8722107 9257827 9257814 441598604 530480505 8728383 441598616 9257823 441598608#0 441598605#0 1316745044 1316745043 441598610 9257825 441598566 222786837#0 222786837#1 222786837#2 222786845 8731955#0 8731955#1"/>
    </vehicle>
    <vehicle id="6" depart="5.00">
        <route edges="-440946822 -440946817 -440946818 -402711411 -440946816 441386526 402711418 -406016982 -441386544#2 -441386544#1 -441386544#0 -441386539 -897491916 -9293884 -9293882 -225624106 -363492586 -897491917 -1425762349 -411653583 -411672987 -441386542 -553146929 -441190750#1 -441190750#0 478958406 441190726 1441543299 441190735 441190729 1436753168 1436753169 441190724 8729176 478957954 222786840#1 441604083 223285095 -1165104012 -8723817#1 -8723817#0 -412677458 -411638815 -441598617 -441598607 -9257825 -441598610 -1316745043 -1316745044 -441598605#1 -441598608#1 -441598606 441598614#0 441598614#1 8728391 441598611 441598612 -9257814 -441598619 -8722107 -441598627 -1316745045 -441598625#1 -8727270 9250770 220169084 394732338 394732367#0 -225623130#1 -441598650 1172413644 513575820#0 225623131#0 441598620 8725599 213562378 1161778295#0 1161778295#1 442031943 524953522#0 524953522#1 1366096024#0 1366096024#1 1366096024#2 1366096024#4 1366096024#5 1366096024#6"/>
    </vehicle>
    <vehicle id="7" depart="6.00">
        <route edges="8727752#14 8727752#15 8727752#16 441612484 441612485 402732243 441612482 482881973 193043947 81961053#2 442050495 -478191869 -442050506#0 -223283003#2 -223283003#1 -223283003#0 -411717985 -8727615 -441604072 -484991826 -441604067 -441604070 -441604068 -441604069 -441604073 -234816699 -441604066 -223282998 -411638815 -441598617 -441598607 -9257825 -441598610 -1316745043 -1316745044 -441598605#1 -441598608#1 -441598606 441598614#0 441598614#1 8728391 441598611 441598612 -9257814 -441598619 -8722107 -441598627 -1316745045 -441598625#1 -8727270 9250770 220169084 394732338 394732367#0 -225623130#1 -441598650 1172413644 513575820#0 225623131#0 441598620 8725599 213562378 1161778295#0 1161778295#1 442031943 524953522#0 524953522#1 1366096024#0 1366096024#1 1366096024#2 1366096024#4 1366096024#5 1366096024#6 1366096024#7 1366096024#8 1366096024#9 1366096024#11 824633605#1 524953523#0 -8722630#3 -8722731#1 -8727668"/>
    </vehicle>
    <vehicle id="8" depart="6.00">
        <route edges="520428819 220170152#0 220170152#1 442050509 81959742 81959753 -193043948 81961042 81961053#0 81961053#1 81961053#2 442050495 -478191869 -442050506#0 -223283003#2 -223283003#1 -223283003#0 -411717985 -8727615 -441604072 -484991826 -441604067 -441604070 -441604068 -441604069 -441604073 -234816699 -441604066 -223282998 -411638815 441604064 8720537 222786837#0 222786837#1 222786837#2 1316743030#0 1316743030#1 222786842 -222786838 -441142715#3 -441142715#2 -441142715#0 -406019854 -413189665#1 -441142712 -441142710#4 -441142710#3 -441142710#2 -441142710#1 -412448865#1 -441142722 -414845168#2 -414845168#1 -414845168#0 -414845169#2 -414845169#1 -1395130849 -1395130850 -222784532#5 -222784532#4 1029626072#0 1029626072#1 1029626073#0 1029626073#1"/>
    </vehicle>
    <vehicle id="9" depart="7.00">
        <route edges="-951292917#1 -512866818 956049272#0 956049272#1 915917653#1 816779057 -1037233219 -440954800#0 1162289086 541603618 1007490222 1007490223 1007490224 1007490218 1007490219 541603629 -512575039 -440954792#6 -440954792#5 -440954792#4 -440954792#3 -440954792#2 -440954792#0 -682245585 -682245586 -412658464 -440946835 -413150937#1 -413150938#0 -440946830 -412658466 -441386533 -411670856 -411728065 -441386535 -225624374 -441386536#2 -441386536#0 -413139429#1 -413139429#0 -225624376#3 -225624376#2 -225624376#0 -413139434#2 -413139434#0 -8733053 -441612494#2 -441612494#1 -441612494#0 -8725777#4 -8725777#3 -8725777#2 8734353#0 8734353#1 8734353#2 8729399"/>
    </vehicle>
    <vehicle id="10" depart="7.00">
        <route edges="-8727756#1 8727752#13 8727752#14 8727752#15 8727752#16 -441612483#1 -441612483#0 -402732242 441612486 1298253866#0 1298253866#1 1298253866#2 1298253872 441612487#0 441612489 1298253858#0 1298253858#1 1298253858#2 441612488 402732241 225624377#0 225624377#1 441612481 225624383 441612490 553145635 553145634 9749279 8729957"/>
    </vehicle>
    <vehicle id="11" depart="8.00">
        <route edges="223283002 -507544018#1 441598627 8722107 9257827 9257814 441598604 530480505 8728383 441598616 9257823 441598608#0 441598605#0 1316745044 1316745043 441598610 9257825 441598607 441598617 411638815 223282998 441604066 234816699 484991825 441604069 441604068 441604070 441604067 441604071 441604072 8727615 411717985 441604074 -8726592#1 -8726592#0"/>
    </vehicle>
    <vehicle id="12" depart="9.00">
        <route edges="-411638815 411638815 412677458 441604077 8723817#1 1165104013 1007860385 5107851 441604086#1 431477752 441604075 9257829 441604076#0 441604076#1 441604076#2 -8733053 -441612494#2 -441612494#1 -441612494#0 -8725777#4 -8725777#3 -8725777#2 8734353#0 8734353#1 8734353#2 8734353#3 8734353#4 -8732139"/>
    </vehicle>
    <vehicle id="13" depart="10.00">
        <route edges="193389169#2 -824633597#0 1122219140 234811371 509868072 12388871#0 12388871#1 512264996#0 394732361#0 1172436049 1172436052 441598649 608385950 8726969 8727270 441598625#0 1316745045 441598627 8722107 9257827 9257814 -9257818 -441598630 -8727887#2 -8727887#1 -8727887#0 -1396194426 -441448159#1 1059660021 -899663388#0 1049829112 1049829109#5 1049829116 54581566#0 54581566#1 54581566#2 8723486#0 8723486#1"/>
    </vehicle>
    <vehicle id="14" depart="12.00">
        <route edges="342800805 -8724211#1 -8724211#0 -512866826#5 -512866826#4 -512866826#3 515707048#0 515707048#1 -956046507 -956046506#0"/>
    </vehicle>
    <vehicle id="15" depart="12.00">
        <route edges="-674011286 674011284 -8734260 481470923#1 -441386530 441386537#0 441386537#2 8733877 -441386544#0 -441386539 -897491916 -9293884 -9293882 -225624106 -363492586 -897491917 -1425762349 -411653583 411670856 441386534 412658466 440946830 413150938#0 440946814 -1162301264#0 -8723544"/>
    </vehicle>
    <vehicle id="16" depart="13.00">
        <route edges="-413150937#1 413150937#1 578895967 412658464 682245586 682245585 440954792#0 440954792#2 440954792#3 440954792#4 440954792#5 440954792#6 512575039 1162289089 541603631 1007490221 541603614 1007490222 1162289087 541603620 -682103162 -440954789#0 -512575051 682103160 683686105 683686104#1 440957904#2 -222784531#1 -222784531#0 222784532#0 222784532#2 222784532#3 222784532#4 222784532#5 1395130850 1395130849 414845169#1 414845169#2 414845168#0 -8725589#0 8725590#1"/>
    </vehicle>
    <vehicle id="17" depart="14.00">
        <route edges="512866820#0 512866820#1 -512866826#0 440954789#1 541603623 1162289088 1007490224 1007490218 1007490219 541603629 -512575039 -440954792#6 -440954792#5 -440954792#4 -440954792#3 -440954792#2 -440954792#0 -682245585 -682245586 -412658464 -440946835 -413150937#1 -413150938#0 -440946830 -412658466 -441386533 -411670856 -411728065 -441386535 -225624374 -441386536#2 -441386536#0 -413139429#1 -413139429#0 -225624376#3 -225624376#2 -225624376#0 -8728003#1 -8728003#0"/>
    </vehicle>
    <vehicle id="18" depart="15.00">
        <route edges="441598570#0 441598570#1 441598627 8722107 9257827 9257814 -9257818 -441598630 -8727887#2 -8727887#1 -8727887#0 -1396194426 -441448159#1 -441448159#0 -1182141378 -410015012#1 441448163#0 441448163#2 -413189666#9 -413189666#8 -413189666#7 -413189666#6 -413189666#5 -413189666#4 -413189666#3 -413189666#2 -413189666#1 -413189666#0 -412448863#1 -412448865#1 -441142722 -414845168#2 -414845168#1 -414845168#0 -414845169#2 -414845169#1 -1395130849 -1395130850 899877906#0 899877906#1 933652367#0 976052077"/>
    </vehicle>
    <vehicle id="19" depart="16.00">
        <route edges="412658464 -8723367#2 -8723367#1 -8723367#0 8733349#4 -8728424#1 -8728424#0 8727494#0 8725728#0 8725728#1 8725728#2 8725728#3 -222784527#0 -440954796 -440954797#1 -440954797#0 -142178750#1 265092103"/>
    </vehicle>
    <vehicle id="20" depart="16.00">
        <route edges="608385951 1316743031#0 1316745046 9257802 441598623#0 441598623#1 9257798 394732361#0 1172436049 1172436052 441598649 608385950 8726969 8727270 441598625#0 1316745045 441598627 8722107 9257827 9257814 441598604 530480505 8728383 441598616 9257823 441598608#0 441598605#0 1316745044 1316745043 441598610 9257825 441598607 441598617 411638815 223282998 441604066 234816699 484991825 441604069 441604068 441604070 441604067 441604071 441604072 8727615 411717985 441604074 223283003#1 223283003#2 442050506#0 442050506#1 361355222 1075434859 193043951 193043948 442050486 220169457 220169456 442050489 81959750 25783876 220169460#0 220169460#1 442050702 413670643 81957827#0 442062894#0 441616589#0 441616589#1 441616589#2 441616589#3 441616589#4 -441616589#4"/>
    </vehicle>
    <vehicle id="21" depart="17.00">
        <route edges="8724116#0 8724116#1 -441190756#1 -441190756#0 -8732514 441190750#1 440954791#0 440954791#1 440954791#2 440954791#6 440954791#7 8731687 366536676#0 366536676#1 8728424#1 -8733349#4 -8733349#3"/>
    </vehicle>
    <vehicle id="22" depart="18.00">
        <route edges="-442028977#2 -442028977#1 -442028977#0 8732308#0 8732308#1 824633604 -441598571 -442031902 -222821819 441598623#0 441598623#1 9257798 394732361#0 1172436049 1172436052 441598649 608385950 8726969 8727270 441598625#0 1316745045 441598627 8722107 9257827 9257814 441598604 530480505 8728383 441598616 9257823 441598608#0 441598605#0 1316745044 1316745043 441598610 9257825 441598607 441598617 411638815 412677458 441604077 8723817#1 1165104013 1007860385 5107851 441604086#1 431477752 441604075 9257829 441604076#0 441604076#1 441604076#2 413139434#0 8729183#0 8722971"/>
    </vehicle>
    <vehicle id="23" depart="19.00">
        <route edges="225624127#1 -8729636 -265091685 8727582 413139429#3 441386536#2 225624374 441386535 411728065 -411672987 -441386542 -553146929 -441190750#1 -441190750#0 -412646493 -897491920 -897491919 -441190747 -412647185 -441190754 -441142719#0 -412646494 -441142720 -222786838 -54581565 -54581566#6 -54581566#5 -54581566#4 -54581566#3 -54581566#2 -996724689 8732266"/>
    </vehicle>
    <vehicle id="24" depart="21.00">
        <route edges="440954792#3 440954792#4 440954792#5 440954792#6 512575039 1162289089 541603631 1007490221 541603614 1007490222 1162289087 541603620 -682103162 -440954789#0 -512575051 682103160 8733560#0 8733560#1 8722254#0 8722254#1 8722254#2 9146802#0 4606911"/>
    </vehicle>
    <vehicle id="25" depart="24.00">
        <route edges="-8729040 8723896#2 -225624122#1 -225624122#0 8730295 225624376#2 225624376#3 225624376#5 413139429#1 413139429#3 441386536#2 225624374 441386535 411728065 411670856 441386534 412658466 440946830 413150938#0 413150937#1 578895967 412658464 682245586 682245585 440954792#0 440954792#2 440954792#3 440954792#4 440954792#5 440954792#6 512575039 1162289089 541603631 1007490221 541603614 1007490222 1162289087 541603620 -682103162 -440954789#0 -512575051 682103160 683686105 683686104#1 440957904#2 -222784531#1 -222784531#0 222784532#0 222784532#2 -932964419 932964420#2"/>
    </vehicle>
    <vehicle id="26" depart="24.00">
        <route edges="-1228482777 441190716#0 -441190716#0 1228482777 8728770 222786834#0 222786834#1 222786834#2 8734940#4 8734942"/>
    </vehicle>
    <vehicle id="27" depart="25.00">
        <route edges="-441386536#0 413139429#3 441386536#2 225624374 441386535 411728065 -411672987 -441386542 -553146929 -441190750#1 8732514 441190756#0 441190756#1 441190756#2 441190756#3 441190756#4 441190756#5 441190756#6 -8724298#1 -8724298#0 -8734616#3 -226458416 -169666734 440954803#1 8724945#0 8724945#1 -8724947"/>
    </vehicle>
    <vehicle id="28" depart="25.00">
        <route edges="-8732629 8725877#1 8723238#1 441612494#0 441612494#1 441612494#2 8733053 -441604076#2 -441604076#1 -441604076#0 -9257829 -441604075 441604082 5107850 441604083 223285095 -1165104012 -8723817#1 -8723817#0 -412677458 -411638815 -441598617 -441598607 -9257825 -441598610 -1316745043 -1316745044 -441598605#1 -441598608#1 -441598606 441598614#0 441598614#1 8728391 441598611 441598612 -9257814 -441598619 -8722107 -441598627 -1316745045 -441598625#1 -8727270 -441598579 -220169073 8734730#0 441598602 -441448152#1 -441448152#0 -213222771 -441448234"/>
    </vehicle>
    <vehicle id="29" depart="26.00">
        <route edges="-8722971 225624384 413139434#2 413139434#3 225624376#2 225624376#3 225624376#5 413139429#1 413139429#3 441386536#2 225624374 441386535 411728065 411670856 441386534 412658466 440946830 413150938#0 8728660#0 8728660#1 8728660#2 8728660#3 8728660#5 8728660#6 8728654#0 546850485"/>
    </vehicle>
    <vehicle id="30" depart="26.00">
        <route edges="-556105345 8734937#8 8734937#9 8734937#10 440946815 413150937#1 578895967 412658464 682245586 682245585 440954792#0 440954792#2 440954792#3 440954792#4 440954792#5 440954792#6 512575039 1162289089 541603631 1007490221 541603633 1036610905 440954800#0 440954800#1 8724637 440954784 440954787 359430242"/>
    </vehicle>
    <vehicle id="31" depart="28.00">
        <route edges="-440946830 440946830 413150938#0 413150937#1 578895967 412658464 682245586 682245585 440954792#0 440954792#2 440954792#3 440954792#4 440954792#5 440954792#6 512575039 1162289089 541603631 1007490221 541603614 1007490222 1007490223 1007490224 1039440721 541603627 -512575033 -512866826#5 -512866823#1 -512866822#1 -541602028 512866824 956046505#1"/>
    </vehicle>
    <vehicle id="32" depart="28.00">
        <route edges="-8728660#6 -8728660#5 -8728660#3 -8728660#2 -8728660#1 -8728660#0 -413150938#0 -440946830 -412658466 -441386533 -411670856 411653583 441386541 1425762348 363492586 225624106 9293882 9293884 897491916 441386539 441386544#0 441386544#1 441386544#2 406016982 531188163 440946816 402711411 411713699 440946817 440946822 9749288 411712617 8733295#0 8724517"/>
    </vehicle>
    <vehicle id="33" depart="29.00">
        <route edges="441604066 -441604066 -223282998 -411638815 441604064 8720537 222786837#0 222786837#1 222786837#2 1316743030#0 1316743030#1 222786842 -222786838 -441142715#3 -441142715#2 -441142715#0 -406019854 -413189665#1 -441142712 -441142710#4 -441142710#3 -441142710#2 -441142710#1 -412448865#1 -441142722 -414845168#2 -414845168#1 -414845168#0 -414845169#2 -414845169#1 -1395130849 -1395130850 899877906#0 899877906#1 899877906#2"/>
    </vehicle>
    <vehicle id="34" depart="29.00">
        <route edges="441604079 431477750 441604078#1 441604078#2 441604078#3 441604078#4 223285093 441604084 441604086#0 441604086#1 431477752 441604082 441190731#0 441190731#1 223285094 478958408 441190740 411705025 441190733#0 441190733#1 411705024 222786843 441190750#1 553146929 553146928 411672987 411670856 441386534 412658466 440946830 413150938#0 8728660#0 8728660#1 8728660#2 8728660#3 8728656#0 8728656#1"/>
    </vehicle>
    <vehicle id="35" depart="30.00">
        <route edges="-8724524 -8723486#0 -54581566#2 -54581566#1 -54581566#0 1049829115 1049829109#1 1049829109#2 1049829109#3 899663361 899663388#0 -1059660021 441448159#1 1396194426 8727887#0 8727887#1 8727887#2 9257816 9257818 -9257814 -441598619 -8722107 -441598627 -1316745045 -441598625#1 -8727270 9250770 220169084 394732338 394732367#0 -225623130#1 -441598650 1172413644 12388869#0 441598621#0 222821819 442031902 441598571 -824633604 -8732308#1 -8732308#0 442028977#0 442028977#1 442028977#2"/>
    </vehicle>
    <vehicle id="36" depart="31.00">
        <route edges="-546850483 8734614#1 -8728660#2 -8728660#1 -8728660#0 -413150938#0 -440946830 -412658466 -441386533 -411670856 411653583 441386541 1425762348 363492586 225624106 9293882 9293884 897491916 441386539 441386544#0 441386544#1 441386544#2 406016982 531188163 440946816 402711411 411713699 440946817 440946822 9749288 224673615 650409561 224673610"/>
    </vehicle>
    <vehicle id="37" depart="33.00">
        <route edges="224673613 650409567 -224673615 -9749288 -440946822 -440946817 -440946818 -402711411 -440946816 441386526 402711418 441386527 -9749280#0 -441386522#1 -441386522#0 -441386523 -441386525 -441386529#1 -441386529#0 -553145634 -9749292 4618557 441612480 402732240 441612478 441612479 1298253874 1298253844 1298253873 1298253845 1298253864 1298253865#0 1298253865#1 1298253865#2 441612473#0 441612473#1 1298253868 225624385 402732242 441612483#0 441612483#1 441612484 441612485 402732243"/>
    </vehicle>
    <vehicle id="38" depart="35.00">
        <route edges="-8728656#1 -8728656#0 -8728660#3 -8728660#2 -8728660#1 -8728660#0 -413150938#0 -440946830 -412658466 -441386533 -411670856 -411672987 -441386542 -553146929 -441190750#1 -441190750#0 -412646493 -897491920 -897491919 -441190747 -412647185 -441190754 -441142719#0 -412646494 -441142720 8725031 441142727#1 -8728484 -8728486#1 -8728486#0 8728486#0"/>
    </vehicle>
    <vehicle id="39" depart="35.00">
        <route edges="-222786837#0 222786837#0 222786837#1 222786837#2 1316743030#0 1316743030#1 222786842 -222786838 -441142715#3 -441142715#2 -441142715#0 -406019854 -413189665#1 -441142712 -441142710#4 -524693410#1 -8726726#2 -8726726#1 8728148#2 -8728148#2"/>
    </vehicle>
    <vehicle id="40" depart="36.00">
        <route edges="8734341 441598618#1 9257827 9257814 441598604 530480505 8728383 441598616 9257823 441598608#0 441598605#0 1316745044 1316745043 441598610 9257825 441598607 441598617 411638815 412677458 441604077 8723817#1 1165104013 1007860385 5107851 441604086#1 431477752 441604075 9257829 441604076#0 441604076#1 441604076#2 -8733053 -441612494#2 -441612494#1 8734557#0 8734557#1 -8734557#1 -8734557#0"/>
    </vehicle>
    <vehicle id="41" depart="37.00">
        <route edges="-8728660#9 8728660#9 8728660#10 -412658464 -440946835 -413150937#1 -413150938#0 -440946830 -412658466 -441386533 -411670856 -411728065 -441386535 -225624374 -441386536#2 -441386536#0 -413139429#1 -413139429#0 -225624376#3 -225624376#2 -225624376#0 -413139434#2 -413139434#0 -8733053 -441612494#2 -441612494#1 8734557#0 8734557#1"/>
    </vehicle>
    <vehicle id="42" depart="39.00">
        <route edges="-8732108 -8734353#5 -8734353#4 -8734353#3 -8734353#2 -8734353#1 -8734353#0 8725777#2 8725777#3 8725777#4 441612494#0 441612494#1 441612494#2 8733053 413139434#0 413139434#2 413139434#3 225624376#2 -441190710#2 -441190710#1 -441190710#0 -222786841 478958408 441190740 411705025 441190733#0 441190733#1 411705024 -142178743 -1162299113 -441190721 488384572 1077352385 1077352386 1077352387 488384562 -553152924 -1228482778 -8723509 8723509 441190718 553152924"/>
    </vehicle>
    <vehicle id="43" depart="41.00">
        <route edges="-723711436 -8729986#0 -441604076#0 -9257829 -441604075 441604082 441190731#0 441190731#1 223285094 478958408 441190740 411705025 441190733#0 441190733#1 411705024 -142178743 -1162299113 -441190721 488384572 1077352385 1442199158 -1162299116 488384569 1442406162 1442199161 1442199166 1442406160 1442199162 1442199157#0 142178750#0 142178750#1 440954797#0 440954797#1 440954796 222784527#0 222784527#1 222784527#2 512575033 1162288689 541603625 1007490219 1007490220 1007490221 541603614 1007490222 1162289087 541603620 -682103162 -440954789#0 -512575051 8727552#2 8733558#3 -8733558#3"/>
    </vehicle>
    <vehicle id="44" depart="44.00">
        <route edges="440954796 222784527#0 222784527#1 222784527#2 512575033 1162288689 541603625 1007490219 1007490220 1007490221 541603614 1007490222 1162289087 541603620 -682103162 -440954789#0 -512575051 682103160 683686105 683686104#1 440957904#2 -222784531#1 -222784531#0 222784532#0 222784532#2 -932964419 -932964420#1"/>
    </vehicle>
    <vehicle id="45" depart="46.00">
        <route edges="-8731063#1 8728003#0 8728003#1 -413139434#2 -413139434#0 -8733053 -441612494#2 -441612494#1 -441612494#0 -8725777#4 8723197"/>
    </vehicle>
    <vehicle id="46" depart="47.00">
        <route edges="441598582 441598592 -441598596 -441598582 -441598590 -441598584 -9257821 -441598597#1 -441598588 -441598583 -220171724 441598604 530480505 8728383 441598616 9257823 441598608#0 441598605#0 1316745044 1316745043 441598610 9257825 441598607 441598617 411638815 223282998 441604066 234816699 484991825 441604069 441604068 441604070 441604067 441604071 441604072 8727615 411717985 441604074 223283003#1 223283003#2 442050506#0 442050506#1 361355222 1075434859 193043951 193043948 442050486 220169457 220169456 442050489 81959750 25783876 220169460#0 220169460#1 442050702 413670643 81957827#0 -25584430#1"/>
    </vehicle>
    <vehicle id="47" depart="48.00">
        <route edges="-8725020 -1366096024#0 -524953522#1 -524953522#0 -442031943 -1161778295#1 -1161778295#0 -213562378 -8725599 -441598620 -225623131#2 394732361#0 1172436049 1172436052 441598649 608385950 8726969 8727270 441598625#0 1316745045 441598627 8722107 9257827 9257814 441598604 530480505 8728383 441598616 9257823 441598608#0 441598605#0 1316745044 1316745043 441598610 9257825 441598607 441598617 411638815 223282998 441604066 234816699 484991825 441604069 441604068 441604070 441604067 441604071 441604072 8727615 411717985 441604074 223283003#1 223283003#2 1305957831 -8721725"/>
    </vehicle>
    <vehicle id="48" depart="53.00">
        <route edges="222784526#0 441448139 8723579 1049829113 1049829109#3 899663361 899663388#0 -1059660021 441448159#1 1396194426 8727887#0 8727887#1 8727887#2 9257816 9257818 441598604 530480505 8728383 441598616 9257823 441598608#0 441598605#0 1316745044 1316745043 441598610 9257825 441598607 441598617 411638815 412677458 441604077 8723817#1 1165104013 1007860385 5107851 441604086#1 431477752 441604075 9257829 441604076#0 441604076#1 441604076#2 225624372#0 225624372#1 -8727308#1 -8727308#0 8725575#0 8725576"/>
    </vehicle>
    <vehicle id="49" depart="54.00">
        <route edges="-8727558 -222786844#0 -709580812 -441604064 411638815 223282998"/>
    </vehicle>
    <vehicle id="50" depart="54.00">
        <route edges="998455864 8729304 -1366096024#2 -1366096024#1 -1366096024#0 -524953522#1 -524953522#0 -442031943 -1161778295#1 -1161778295#0 -213562378 -8725599 -441598620 -225623131#2 394732361#0 1172436049 1172436052 441598649 608385950 8726969 8727270 441598625#0 1316745045 441598627 8722107 9257827 9257814 441598604 530480505 8728383 441598616 9257823 441598608#0 441598605#0 1316745044 1316745043 441598610 9257825 441598607 441598617 411638815 223282998 441604066 234816699 484991825 441604069 441604068 441604070 441604067 441604071 441604072 8727615 411717985 441604074 223283003#1 223283003#2 442050506#0 442050506#1 361355222 1075434859 193043951 193043948 442050486 220169457 220169456 1075434876 81959739#0 544143105 520428814"/>
    </vehicle>
    <vehicle id="51" depart="55.00">
        <route edges="541603631 1007490221 541603614 1007490222 1007490223 1007490224 1039440721 541603627 -512575033 -512866826#5 -512866823#1 -512866822#1 -541602028 512866824 956046505#1"/>
    </vehicle>
    <vehicle id="52" depart="56.00">
        <route edges="441612479 1298253874 1298253844 414746785 -441612493#1 -441612493#0 -414746781 -225624372#0 -441604076#2 -441604076#1 -441604076#0 -9257829 -441604075 441604082 5107850 441604083 223285095 1007860385 1421965236 1007860386#0 1007860386#1 1007860387#0 8723659 431477753#0 431477753#1 431477753#2 -8724481 -8731236#1"/>
    </vehicle>
    <vehicle id="53" depart="56.00">
        <route edges="518869605 518869600-AddedOnRampEdge 518869600 1047088720 8721502 413673573 -9293884 -9293882 -225624106 -363492586 -897491917 -1425762349 -411653583 411670856 441386534 412658466 440946830 413150938#0 413150937#1 578895967 412658464 682245586 682245585 440954792#0 440954792#2 440954792#3 440954792#4 440954792#5 440954792#6 512575039 1162289089 541603631 1007490221 541603633 1036610905 440954800#0 440954800#1 -1037233219"/>
    </vehicle>
    <vehicle id="54" depart="58.00">
        <route edges="-441190754 441142719#1 412647185 441190747 897491919 897491918 412646493 222786843 441190750#1 553146929 553146928 411672987 411670856 441386534 412658466 440946830 413150938#0 413150937#1 578895967 412658464 -8728660#10 547329392"/>
    </vehicle>
    <vehicle id="55" depart="58.00">
        <route edges="9146802#10 -9146802#10 -9146802#9 -9146802#8 -9146802#7 -8727552#3 -8727552#2 682103160 683686105 683686104#1 440957904#2 -222784531#1 -222784531#0 222784532#0 222784532#2 222784532#3 222784532#4 222784532#5 1395130850 1395130849 414845169#1 414845169#2 414845168#0 414845168#1 414845168#2 441142722 412448865#0 441142710#0 441142710#2 441142710#3 441142710#4 441142711 413189665#0 -441142717 -897491921 -441142721 -441598643 -8733979 8723579 1049829113 1049829109#3 899663361 899663388#0 899663388#1 -441598639#0 -1396194426 -441448159#1"/>
    </vehicle>
    <vehicle id="56" depart="60.00">
        <route edges="-411709137 411709137 411709140#1 1442199170 1442199168 488384564 1077352387 1077352381 1077352382 488384557 -1162299121 -441190744 -8731162 -441190742#1 -897491919 -441190747 -412647185 -441190754 -441142719#0 -412646494 -441142720 -222786842 -1316743030#1 -1316743030#0 -222786837#2 -222786837#1 -222786837#0 441598567 441598568 -9257825 -441598610 -1316745043 -1316745044 -441598605#1 -441598608#1 -441598606 441598614#0 441598614#1 8728391 441598611 441598612 -9257818 -441598630 -8727887#2"/>
    </vehicle>
    <vehicle id="57" depart="61.00">
        <route edges="8723952 9146808 1069414160 40941530 1137021855 520428820 1137021856 8720992 413673575 -363492586 -897491917 -1425762349 -411653583 411670856 441386534 412658466 440946830 413150938#0 413150937#1 578895967 412658464 682245586 682245585 440954792#0 440954792#2 440954792#3 440954792#4 440954792#5 440954792#6 512575039 1162289089 541603631 1007490221 541603614 1007490222 1162289087 541603620 -682103162 -440954789#0 -512575051 -8727552#1 8729272"/>
    </vehicle>
    <vehicle id="58" depart="61.00">
        <route edges="1162299116 1442199168 488384564 1077352387 488384562 -553152924 -1228482778 -8723509 8723509 441190718 553152924"/>
    </vehicle>
    <vehicle id="59" depart="62.00">