<?xml version="1.0" encoding="UTF-8"?>

<!-- generated on 2025-12-21 09:47:12 by Eclipse SUMO netconvert Version 1.23.1
<netconvertConfiguration xmlns:xsi="http://www.w3.org/2001/XMLSchema-instance" xsi:noNamespaceSchemaLocation="http://sumo.dlr.de/xsd/netconvertConfiguration.xsd">

    <input>
        <osm-files value="/home/dmmsjtu/Desktop/TeraSim-main/packages/terasim-envgen/terasim_envgen/core/urban_construcion_zone/scenes/scene_42.2981_-83.7199_500/map.osm"/>
    </input>

    <output>
        <output-file value="/home/dmmsjtu/Desktop/TeraSim-main/packages/terasim-envgen/terasim_envgen/core/urban_construcion_zone/scenes/scene_42.2981_-83.7199_500/map.net.xml"/>
    </output>

    <projection>
        <proj.utm value="true"/>
    </projection>

    <processing>
        <geometry.remove value="true"/>
        <roundabouts.guess value="true"/>
    </processing>

    <tls_building>
        <tls.guess value="true"/>
    </tls_building>

    <ramp_guessing>
        <ramps.guess value="true"/>
    </ramp_guessing>

    <junctions>
        <junctions.join value="true"/>
    </junctions>

</netconvertConfiguration>
-->

<net version="1.20" junctionCornerDetail="5" limitTurnSpeed="5.50" xmlns:xsi="http://www.w3.org/2001/XMLSchema-instance" xsi:noNamespaceSchemaLocation="http://sumo.dlr.de/xsd/net_file.xsd">

    <location netOffset="-275518.79,-4686200.16" convBoundary="0.00,0.00,544.01,582.66" origBoundary="-83.723268,42.295790,-83.716646,42.301012" projParameter="+proj=utm +zone=17 +ellps=WGS84 +datum=WGS84 +units=m +no_defs"/>

    <type id="highway.residential" priority="3" numLanes="1" speed="13.89" disallow="tram rail_urban rail rail_electric rail_fast ship container cable_car subway aircraft wheelchair scooter drone" oneway="0"/>
    <type id="highway.secondary" priority="11" numLanes="1" speed="27.78" disallow="tram rail_urban rail rail_electric rail_fast ship container cable_car subway aircraft wheelchair scooter drone" oneway="0"/>
    <type id="highway.tertiary" priority="10" numLanes="1" speed="22.22" disallow="tram rail_urban rail rail_electric rail_fast ship container cable_car subway aircraft wheelchair scooter drone" oneway="0"/>
    <type id="highway.unclassified" priority="4" numLanes="1" speed="13.89" disallow="tram rail_urban rail rail_electric rail_fast ship container cable_car subway aircraft wheelchair scooter drone" oneway="0"/>

    <edge id=":2036693571_0" function="internal">
        <lane id=":2036693571_0_0" index="0" disallow="tram rail_urban rail rail_electric rail_fast ship container cable_car subway aircraft wheelchair scooter drone" speed="7.64" length="2.50" shape="330.60,377.12 330.52,376.39 330.53,375.88 330.66,375.38 330.93,374.69"/>
    </edge>
    <edge id=":2036693571_1" function="internal">
        <lane id=":2036693571_1_0" index="0" disallow="tram rail_urban rail rail_electric rail_fast ship container cable_car subway aircraft wheelchair scooter drone" speed="13.89" length="0.83" shape="333.88,375.91 333.79,376.14 333.75,376.31 333.75,376.48 333.78,376.72"/>
    </edge>
    <edge id=":2370396970_0" function="internal">
        <lane id=":2370396970_0_0" index="0" disallow="tram rail_urban rail rail_electric rail_fast ship container cable_car subway aircraft wheelchair scooter drone" speed="22.22" length="14.25" shape="256.89,126.78 250.47,139.50"/>
    </edge>
    <edge id=":2370396970_1" function="internal">
        <lane id=":2370396970_1_0" index="0" disallow="tram rail_urban rail rail_electric rail_fast ship container cable_car subway aircraft wheelchair scooter drone" speed="7.91" length="3.98" shape="256.89,126.78 254.56,130.00"/>
    </edge>
    <edge id=":2370396970_2" function="internal">
        <lane id=":2370396970_2_0" index="0" disallow="tram rail_urban rail rail_electric rail_fast ship container cable_car subway aircraft wheelchair scooter drone" speed="3.65" length="1.44" shape="256.89,126.78 255.62,127.47"/>
    </edge>
    <edge id=":2370396970_9" function="internal">
        <lane id=":2370396970_9_0" index="0" disallow="tram rail_urban rail rail_electric rail_fast ship container cable_car subway aircraft wheelchair scooter drone" speed="7.91" length="10.43" shape="254.56,130.00 251.78,131.64 248.55,131.69 244.88,130.16"/>
    </edge>
    <edge id=":2370396970_10" function="internal">
        <lane id=":2370396970_10_0" index="0" disallow="tram rail_urban rail rail_electric rail_fast ship container cable_car subway aircraft wheelchair scooter drone" speed="3.65" length="3.23" shape="255.62,127.47 254.73,127.45 254.20,126.73 254.05,125.29"/>
    </edge>
    <edge id=":2370396970_3" function="internal">
        <lane id=":2370396970_3_0" index="0" disallow="tram rail_urban rail rail_electric rail_fast ship container cable_car subway aircraft wheelchair scooter drone" speed="6.39" length="9.04" shape="246.52,127.42 248.83,128.38 250.85,128.34 252.59,127.31 254.05,125.29"/>
    </edge>
    <edge id=":2370396970_4" function="internal">
        <lane id=":2370396970_4_0" index="0" disallow="tram rail_urban rail rail_electric rail_fast ship container cable_car subway aircraft wheelchair scooter drone" speed="8.28" length="14.23" shape="246.52,127.42 249.62,129.87 251.31,132.70 251.59,135.91 250.47,139.50"/>
    </edge>
    <edge id=":2370396970_5" function="internal">
        <lane id=":2370396970_5_0" index="0" disallow="tram rail_urban rail rail_electric rail_fast ship container cable_car subway aircraft wheelchair scooter drone" speed="3.65" length="4.67" shape="246.52,127.42 247.14,128.72 247.08,129.61 246.32,130.09 244.88,130.16"/>
    </edge>
    <edge id=":2370396970_6" function="internal">
        <lane id=":2370396970_6_0" index="0" disallow="tram rail_urban rail rail_electric rail_fast ship container cable_car subway aircraft wheelchair scooter drone" speed="6.84" length="9.40" shape="247.59,138.12 248.31,135.77 248.10,133.67 246.96,131.80 244.88,130.16"/>
    </edge>
    <edge id=":2370396970_7" function="internal">
        <lane id=":2370396970_7_0" index="0" disallow="tram rail_urban rail rail_electric rail_fast ship container cable_car subway aircraft wheelchair scooter drone" speed="22.22" length="14.36" shape="247.59,138.12 254.05,125.29"/>
    </edge>
    <edge id=":2370396970_8" function="internal">
        <lane id=":2370396970_8_0" index="0" disallow="tram rail_urban rail rail_electric rail_fast ship container cable_car subway aircraft wheelchair scooter drone" speed="3.65" length="1.44" shape="247.59,138.12 248.83,137.38"/>
    </edge>
    <edge id=":2370396970_11" function="internal">
        <lane id=":2370396970_11_0" index="0" disallow="tram rail_urban rail rail_electric rail_fast ship container cable_car subway aircraft wheelchair scooter drone" speed="3.65" length="3.23" shape="248.83,137.38 249.73,137.37 250.27,138.08 250.47,139.50"/>
    </edge>
    <edge id=":3162335803_0" function="internal">
        <lane id=":3162335803_0_0" index="0" disallow="tram rail_urban rail rail_electric rail_fast ship container cable_car subway aircraft wheelchair scooter drone" speed="3.65" length="4.67" shape="14.63,141.11 13.84,139.90 13.78,139.01 14.46,138.43 15.88,138.16"/>
    </edge>
    <edge id=":5545648084_0" function="internal">
        <lane id=":5545648084_0_0" index="0" disallow="tram rail_urban rail rail_electric rail_fast ship container cable_car subway aircraft wheelchair scooter drone" speed="3.65" length="4.67" shape="544.73,369.82 545.44,371.08 545.43,371.97 544.71,372.51 543.28,372.67"/>
    </edge>
    <edge id=":5545944396_0" function="internal">
        <lane id=":5545944396_0_0" index="0" disallow="tram rail_urban rail rail_electric rail_fast ship container cable_car subway aircraft wheelchair scooter drone" speed="3.65" length="4.67" shape="130.78,8.78 131.57,7.57 132.36,7.16 133.17,7.55 133.98,8.74"/>
    </edge>
    <edge id=":62497994_0" function="internal">
        <lane id=":62497994_0_0" index="0" disallow="tram rail_urban rail rail_electric rail_fast ship container cable_car subway aircraft wheelchair scooter drone" speed="6.42" length="9.03" shape="454.49,460.90 452.01,460.96 450.16,461.81 448.96,463.44 448.41,465.87"/>
    </edge>
    <edge id=":62497994_1" function="internal">
        <lane id=":62497994_1_0" index="0" disallow="tram rail_urban rail rail_electric rail_fast ship container cable_car subway aircraft wheelchair scooter drone" speed="13.89" length="14.12" shape="454.49,460.90 450.92,460.40 447.52,459.77 444.17,458.96 440.71,457.93"/>
    </edge>
    <edge id=":62497994_2" function="internal">
        <lane id=":62497994_2_0" index="0" disallow="tram rail_urban rail rail_electric rail_fast ship container cable_car subway aircraft wheelchair scooter drone" speed="3.65" length="1.44" shape="454.49,460.90 453.40,459.97"/>
    </edge>
    <edge id=":62497994_9" function="internal">
        <lane id=":62497994_9_0" index="0" disallow="tram rail_urban rail rail_electric rail_fast ship container cable_car subway aircraft wheelchair scooter drone" speed="3.65" length="3.23" shape="453.40,459.97 453.10,459.12 453.59,458.38 454.88,457.73"/>
    </edge>
    <edge id=":62497994_3" function="internal">
        <lane id=":62497994_3_0" index="0" disallow="tram rail_urban rail rail_electric rail_fast ship container cable_car subway aircraft wheelchair scooter drone" speed="13.89" length="13.49" shape="441.71,454.88 445.07,455.90 448.21,456.66 451.39,457.25 454.88,457.73"/>
    </edge>
    <edge id=":62497994_4" function="internal">
        <lane id=":62497994_4_0" index="0" disallow="tram rail_urban rail rail_electric rail_fast ship container cable_car subway aircraft wheelchair scooter drone" speed="8.73" length="3.57" shape="441.71,454.88 444.90,456.48"/>
    </edge>
    <edge id=":62497994_5" function="internal">
        <lane id=":62497994_5_0" index="0" disallow="tram rail_urban rail rail_electric rail_fast ship container cable_car subway aircraft wheelchair scooter drone" speed="3.65" length="1.44" shape="441.71,454.88 442.60,456.02"/>
    </edge>
    <edge id=":62497994_10" function="internal">
        <lane id=":62497994_10_0" index="0" disallow="tram rail_urban rail rail_electric rail_fast ship container cable_car subway aircraft wheelchair scooter drone" speed="8.73" length="10.46" shape="444.90,456.48 447.09,458.84 448.25,461.97 448.41,465.87"/>
    </edge>
    <edge id=":62497994_11" function="internal">
        <lane id=":62497994_11_0" index="0" disallow="tram rail_urban rail rail_electric rail_fast ship container cable_car subway aircraft wheelchair scooter drone" speed="3.65" length="3.23" shape="442.60,456.02 442.73,456.90 442.10,457.54 440.71,457.93"/>
    </edge>
    <edge id=":62497994_6" function="internal">
        <lane id=":62497994_6_0" index="0" disallow="tram rail_urban rail rail_electric rail_fast ship container cable_car subway aircraft wheelchair scooter drone" speed="7.35" length="9.70" shape="445.22,465.61 445.12,462.86 444.34,460.67 442.87,459.02 440.71,457.93"/>
    </edge>
    <edge id=":62497994_7" function="internal">
        <lane id=":62497994_7_0" index="0" disallow="tram rail_urban rail rail_electric rail_fast ship container cable_car subway aircraft wheelchair scooter drone" speed="7.93" length="14.34" shape="445.22,465.61 446.10,461.76 448.00,459.16 450.93,457.82 454.88,457.73"/>
    </edge>
    <edge id=":62497994_8" function="internal">
        <lane id=":62497994_8_0" index="0" disallow="tram rail_urban rail rail_electric rail_fast ship container cable_car subway aircraft wheelchair scooter drone" speed="3.65" length="4.67" shape="445.22,465.61 446.12,464.48 446.95,464.14 447.71,464.61 448.41,465.87"/>
    </edge>
    <edge id=":62497996_0" function="internal">
        <lane id=":62497996_0_0" index="0" disallow="tram rail_urban rail rail_electric rail_fast ship container cable_car subway aircraft wheelchair scooter drone" speed="3.65" length="4.67" shape="449.28,561.86 448.50,563.07 447.71,563.48 446.90,563.10 446.08,561.91"/>
    </edge>
    <edge id=":62501636_0" function="internal">
        <lane id=":62501636_0_0" index="0" disallow="tram rail_urban rail rail_electric rail_fast ship container cable_car subway aircraft wheelchair scooter drone" speed="6.71" length="9.36" shape="45.11,154.24 42.74,153.54 40.66,153.80 38.87,155.00 37.36,157.16"/>
    </edge>
    <edge id=":62501636_1" function="internal">
        <lane id=":62501636_1_0" index="0" disallow="tram rail_urban rail rail_electric rail_fast ship container cable_car subway aircraft wheelchair scooter drone" speed="11.18" length="14.47" shape="45.11,154.24 31.88,148.37"/>
    </edge>
    <edge id=":62501636_2" function="internal">
        <lane id=":62501636_2_0" index="0" disallow="tram rail_urban rail rail_electric rail_fast ship container cable_car subway aircraft wheelchair scooter drone" speed="3.65" length="4.67" shape="45.11,154.24 44.36,153.00 44.33,152.11 45.04,151.55 46.46,151.34"/>
    </edge>
    <edge id=":62501636_3" function="internal">
        <lane id=":62501636_3_0" index="0" disallow="tram rail_urban rail rail_electric rail_fast ship container cable_car subway aircraft wheelchair scooter drone" speed="11.18" length="14.59" shape="33.12,145.42 46.46,151.34"/>
    </edge>
    <edge id=":62501636_4" function="internal">
        <lane id=":62501636_4_0" index="0" disallow="tram rail_urban rail rail_electric rail_fast ship container cable_car subway aircraft wheelchair scooter drone" speed="7.86" length="14.51" shape="33.12,145.42 36.56,147.50 38.42,150.14 38.68,153.37 37.36,157.16"/>
    </edge>
    <edge id=":62501636_5" function="internal">
        <lane id=":62501636_5_0" index="0" disallow="tram rail_urban rail rail_electric rail_fast ship container cable_car subway aircraft wheelchair scooter drone" speed="3.65" length="4.67" shape="33.12,145.42 33.92,146.63 33.97,147.52 33.29,148.10 31.88,148.37"/>
    </edge>
    <edge id=":62501636_6" function="internal">
        <lane id=":62501636_6_0" index="0" disallow="tram rail_urban rail rail_electric rail_fast ship container cable_car subway aircraft wheelchair scooter drone" speed="6.34" length="9.04" shape="34.52,155.69 35.34,153.32 35.18,151.31 34.02,149.66 31.88,148.37"/>
    </edge>
    <edge id=":62501636_7" function="internal">
        <lane id=":62501636_7_0" index="0" disallow="tram rail_urban rail rail_electric rail_fast ship container cable_car subway aircraft wheelchair scooter drone" speed="8.17" length="14.36" shape="34.52,155.69 36.82,152.42 39.58,150.61 42.79,150.24 46.46,151.34"/>
    </edge>
    <edge id=":62501636_8" function="internal">
        <lane id=":62501636_8_0" index="0" disallow="tram rail_urban rail rail_electric rail_fast ship container cable_car subway aircraft wheelchair scooter drone" speed="3.65" length="4.67" shape="34.52,155.69 35.78,154.99 36.68,155.00 37.20,155.73 37.36,157.16"/>
    </edge>
    <edge id=":62501643_0" function="internal">
        <lane id=":62501643_0_0" index="0" disallow="tram rail_urban rail rail_electric rail_fast ship container cable_car subway aircraft wheelchair scooter drone" speed="11.18" length="7.73" shape="130.94,208.64 126.95,202.02"/>
    </edge>
    <edge id=":62501643_1" function="internal">
        <lane id=":62501643_1_0" index="0" disallow="tram rail_urban rail rail_electric rail_fast ship container cable_car subway aircraft wheelchair scooter drone" speed="11.18" length="8.35" shape="129.65,200.30 131.40,202.11 133.15,202.84 134.87,203.60 136.51,205.48"/>
        <lane id=":62501643_1_1" index="1" disallow="tram rail_urban rail rail_electric rail_fast ship container cable_car subway aircraft wheelchair scooter drone" speed="11.18" length="8.35" shape="129.65,200.30 133.73,207.06"/>
    </edge>
    <edge id=":62501649_0" function="internal">
        <lane id=":62501649_0_0" index="0" disallow="tram rail_urban rail rail_electric rail_fast ship container cable_car subway aircraft wheelchair scooter drone" speed="15.65" length="16.42" shape="157.62,252.00 152.91,253.03 149.70,253.81 146.52,254.72 141.92,256.18"/>
        <lane id=":62501649_0_1" index="1" disallow="tram rail_urban rail rail_electric rail_fast ship container cable_car subway aircraft wheelchair scooter drone" speed="15.65" length="16.42" shape="156.94,248.87 152.13,249.93 148.86,250.72 145.62,251.65 140.94,253.14"/>
    </edge>
    <edge id=":62501649_2" function="internal">
        <lane id=":62501649_2_0" index="0" disallow="tram rail_urban rail rail_electric rail_fast ship container cable_car subway aircraft wheelchair scooter drone" speed="10.29" length="3.68" shape="156.94,248.87 153.26,248.95"/>
    </edge>
    <edge id=":62501649_3" function="internal">
        <lane id=":62501649_3_0" index="0" disallow="tram rail_urban rail rail_electric rail_fast ship container cable_car subway aircraft wheelchair scooter drone" speed="3.65" length="1.44" shape="156.94,248.87 155.59,248.35"/>
    </edge>
    <edge id=":62501649_13" function="internal">
        <lane id=":62501649_13_0" index="0" disallow="tram rail_urban rail rail_electric rail_fast ship container cable_car subway aircraft wheelchair scooter drone" speed="10.29" length="17.88" shape="153.26,248.95 152.12,248.97 147.92,247.02 144.35,243.01 141.39,236.94"/>
    </edge>
    <edge id=":62501649_14" function="internal">
        <lane id=":62501649_14_0" index="0" disallow="tram rail_urban rail rail_electric rail_fast ship container cable_car subway aircraft wheelchair scooter drone" speed="3.65" length="3.23" shape="155.59,248.35 155.03,247.65 155.25,246.78 156.25,245.74"/>
    </edge>
    <edge id=":62501649_4" function="internal">
        <lane id=":62501649_4_0" index="0" disallow="tram rail_urban rail rail_electric rail_fast ship container cable_car subway aircraft wheelchair scooter drone" speed="7.12" length="9.83" shape="147.39,234.71 148.69,237.24 150.37,238.88 152.43,239.63 154.87,239.49"/>
        <lane id=":62501649_4_1" index="1" disallow="tram rail_urban rail rail_electric rail_fast ship container cable_car subway aircraft wheelchair scooter drone" speed="8.52" length="14.48" shape="144.39,235.82 146.28,239.46 148.78,241.80 151.87,242.85 155.56,242.62"/>
    </edge>
    <edge id=":62501649_6" function="internal">
        <lane id=":62501649_6_0" index="0" disallow="tram rail_urban rail rail_electric rail_fast ship container cable_car subway aircraft wheelchair scooter drone" speed="9.25" length="19.95" shape="144.39,235.82 146.20,242.32 146.22,247.38 144.47,250.98 140.94,253.14"/>
    </edge>
    <edge id=":62501649_7" function="internal">
        <lane id=":62501649_7_0" index="0" disallow="tram rail_urban rail rail_electric rail_fast ship container cable_car subway aircraft wheelchair scooter drone" speed="3.65" length="1.44" shape="144.39,235.82 144.06,237.23"/>
    </edge>
    <edge id=":62501649_15" function="internal">
        <lane id=":62501649_15_0" index="0" disallow="tram rail_urban rail rail_electric rail_fast ship container cable_car subway aircraft wheelchair scooter drone" speed="3.65" length="3.23" shape="144.06,237.23 143.45,237.88 142.56,237.79 141.39,236.94"/>
    </edge>
    <edge id=":62501649_8" function="internal">
        <lane id=":62501649_8_0" index="0" disallow="tram rail_urban rail rail_electric rail_fast ship container cable_car subway aircraft wheelchair scooter drone" speed="6.41" length="9.04" shape="137.98,244.01 140.22,242.91 141.53,241.37 141.92,239.38 141.39,236.94"/>
    </edge>
    <edge id=":62501649_9" function="internal">
        <lane id=":62501649_9_0" index="0" disallow="tram rail_urban rail rail_electric rail_fast ship container cable_car subway aircraft wheelchair scooter drone" speed="15.65" length="17.19" shape="137.98,244.01 142.93,242.43 146.34,241.45 149.80,240.61 154.87,239.49"/>
        <lane id=":62501649_9_1" index="1" disallow="tram rail_urban rail rail_electric rail_fast ship container cable_car subway aircraft wheelchair scooter drone" speed="15.65" length="17.19" shape="138.96,247.05 143.82,245.50 147.18,244.54 150.58,243.72 155.56,242.62"/>
        <lane id=":62501649_9_2" index="2" disallow="tram rail_urban rail rail_electric rail_fast ship container cable_car subway aircraft wheelchair scooter drone" speed="15.65" length="17.19" shape="139.95,250.09 144.72,248.57 148.02,247.63 151.35,246.82 156.25,245.74"/>
    </edge>
    <edge id=":62501649_12" function="internal">
        <lane id=":62501649_12_0" index="0" disallow="tram rail_urban rail rail_electric rail_fast ship container cable_car subway aircraft wheelchair scooter drone" speed="3.65" length="1.44" shape="139.95,250.09 141.34,250.49"/>
    </edge>
    <edge id=":62501649_16" function="internal">
        <lane id=":62501649_16_0" index="0" disallow="tram rail_urban rail rail_electric rail_fast ship container cable_car subway aircraft wheelchair scooter drone" speed="3.65" length="3.23" shape="141.34,250.49 141.97,251.12 141.83,252.01 140.94,253.14"/>
    </edge>
    <edge id=":62502776_0" function="internal">
        <lane id=":62502776_0_0" index="0" disallow="tram rail_urban rail rail_electric rail_fast ship container cable_car subway aircraft wheelchair scooter drone" speed="3.65" length="4.67" shape="0.00,448.90 -1.20,448.10 -1.60,447.30 -1.20,446.50 -0.00,445.70"/>
    </edge>
    <edge id=":62508219_0" function="internal">
        <lane id=":62508219_0_0" index="0" disallow="tram rail_urban rail rail_electric rail_fast ship container cable_car subway aircraft wheelchair scooter drone" speed="3.65" length="4.67" shape="19.11,377.26 18.46,375.98 18.50,375.08 19.24,374.58 20.68,374.47"/>
    </edge>
    <edge id=":62508228_0" function="internal">
        <lane id=":62508228_0_0" index="0" disallow="tram rail_urban rail rail_electric rail_fast ship container cable_car subway aircraft wheelchair scooter drone" speed="6.54" length="9.04" shape="220.22,382.07 219.82,379.64 218.74,377.91 216.97,376.87 214.52,376.53"/>
    </edge>
    <edge id=":62508228_1" function="internal">
        <lane id=":62508228_1_0" index="0" disallow="tram rail_urban rail rail_electric rail_fast ship container cable_car subway aircraft wheelchair scooter drone" speed="13.89" length="14.35" shape="220.22,382.07 220.08,367.73"/>
    </edge>
    <edge id=":62508228_2" function="internal">
        <lane id=":62508228_2_0" index="0" disallow="tram rail_urban rail rail_electric rail_fast ship container cable_car subway aircraft wheelchair scooter drone" speed="3.65" length="1.44" shape="220.22,382.07 220.99,380.86"/>
    </edge>
    <edge id=":62508228_9" function="internal">
        <lane id=":62508228_9_0" index="0" disallow="tram rail_urban rail rail_electric rail_fast ship container cable_car subway aircraft wheelchair scooter drone" speed="3.65" length="3.23" shape="220.99,380.86 221.79,380.45 222.59,380.83 223.41,382.02"/>
    </edge>
    <edge id=":62508228_3" function="internal">
        <lane id=":62508228_3_0" index="0" disallow="tram rail_urban rail rail_electric rail_fast ship container cable_car subway aircraft wheelchair scooter drone" speed="13.89" length="14.30" shape="223.28,367.72 223.41,382.02"/>
    </edge>
    <edge id=":62508228_4" function="internal">
        <lane id=":62508228_4_0" index="0" disallow="tram rail_urban rail rail_electric rail_fast ship container cable_car subway aircraft wheelchair scooter drone" speed="8.00" length="4.00" shape="223.28,367.72 222.74,371.56 222.67,371.67"/>
    </edge>
    <edge id=":62508228_5" function="internal">
        <lane id=":62508228_5_0" index="0" disallow="tram rail_urban rail rail_electric rail_fast ship container cable_car subway aircraft wheelchair scooter drone" speed="3.65" length="1.44" shape="223.28,367.72 222.48,368.92"/>
    </edge>
    <edge id=":62508228_10" function="internal">
        <lane id=":62508228_10_0" index="0" disallow="tram rail_urban rail rail_electric rail_fast ship container cable_car subway aircraft wheelchair scooter drone" speed="8.00" length="10.16" shape="222.67,371.67 221.09,374.31 218.36,375.97 214.52,376.53"/>
    </edge>
    <edge id=":62508228_11" function="internal">
        <lane id=":62508228_11_0" index="0" disallow="tram rail_urban rail rail_electric rail_fast ship container cable_car subway aircraft wheelchair scooter drone" speed="3.65" length="3.23" shape="222.48,368.92 221.68,369.32 220.88,368.92 220.08,367.73"/>
    </edge>
    <edge id=":62508228_6" function="internal">
        <lane id=":62508228_6_0" index="0" disallow="tram rail_urban rail rail_electric rail_fast ship container cable_car subway aircraft wheelchair scooter drone" speed="6.51" length="9.01" shape="214.50,373.33 216.95,372.97 218.69,371.92 219.73,370.17 220.08,367.73"/>
    </edge>
    <edge id=":62508228_7" function="internal">
        <lane id=":62508228_7_0" index="0" disallow="tram rail_urban rail rail_electric rail_fast ship container cable_car subway aircraft wheelchair scooter drone" speed="8.03" length="14.15" shape="214.50,373.33 218.34,373.86 221.11,375.48 222.80,378.20 223.41,382.02"/>
    </edge>
    <edge id=":62508228_8" function="internal">
        <lane id=":62508228_8_0" index="0" disallow="tram rail_urban rail rail_electric rail_fast ship container cable_car subway aircraft wheelchair scooter drone" speed="3.65" length="4.67" shape="214.50,373.33 215.71,374.13 216.11,374.93 215.71,375.73 214.52,376.53"/>
    </edge>
    <edge id=":62515797_0" function="internal">
        <lane id=":62515797_0_0" index="0" disallow="tram rail_urban rail rail_electric rail_fast ship container cable_car subway aircraft wheelchair scooter drone" speed="13.89" length="10.43" shape="482.06,463.92 471.67,462.98"/>
    </edge>
    <edge id=":62515797_1" function="internal">
        <lane id=":62515797_1_0" index="0" disallow="tram rail_urban rail rail_electric rail_fast ship container cable_car subway aircraft wheelchair scooter drone" speed="6.75" length="2.75" shape="482.06,463.92 479.56,463.22 479.46,463.11"/>
    </edge>
    <edge id=":62515797_2" function="internal">
        <lane id=":62515797_2_0" index="0" disallow="tram rail_urban rail rail_electric rail_fast ship container cable_car subway aircraft wheelchair scooter drone" speed="3.65" length="1.44" shape="482.06,463.92 480.92,463.04"/>
    </edge>
    <edge id=":62515797_6" function="internal">
        <lane id=":62515797_6_0" index="0" disallow="tram rail_urban rail rail_electric rail_fast ship container cable_car subway aircraft wheelchair scooter drone" speed="6.75" length="8.56" shape="479.46,463.11 478.09,461.53 477.67,458.83 478.29,455.14"/>
    </edge>
    <edge id=":62515797_7" function="internal">
        <lane id=":62515797_7_0" index="0" disallow="tram rail_urban rail rail_electric rail_fast ship container cable_car subway aircraft wheelchair scooter drone" speed="3.65" length="3.23" shape="480.92,463.04 480.57,462.22 481.02,461.44 482.27,460.72"/>
    </edge>
    <edge id=":62515797_3" function="internal">
        <lane id=":62515797_3_0" index="0" disallow="tram rail_urban rail rail_electric rail_fast ship container cable_car subway aircraft wheelchair scooter drone" speed="6.71" length="8.61" shape="472.06,459.80 474.25,459.73 476.02,458.93 477.36,457.40 478.29,455.14"/>
    </edge>
    <edge id=":62515797_4" function="internal">
        <lane id=":62515797_4_0" index="0" disallow="tram rail_urban rail rail_electric rail_fast ship container cable_car subway aircraft wheelchair scooter drone" speed="13.89" length="10.26" shape="472.06,459.80 482.27,460.72"/>
    </edge>
    <edge id=":62515797_5" function="internal">
        <lane id=":62515797_5_0" index="0" disallow="tram rail_urban rail rail_electric rail_fast ship container cable_car subway aircraft wheelchair scooter drone" speed="3.65" length="1.44" shape="472.06,459.80 473.15,460.74"/>
    </edge>
    <edge id=":62515797_8" function="internal">
        <lane id=":62515797_8_0" index="0" disallow="tram rail_urban rail rail_electric rail_fast ship container cable_car subway aircraft wheelchair scooter drone" speed="3.65" length="3.23" shape="473.15,460.74 473.45,461.58 472.96,462.33 471.67,462.98"/>
    </edge>
    <edge id=":62519837_0" function="internal">
        <lane id=":62519837_0_0" index="0" disallow="tram rail_urban rail rail_electric rail_fast ship container cable_car subway aircraft wheelchair scooter drone" speed="6.53" length="9.06" shape="221.47,450.54 221.07,448.10 219.97,446.37 218.19,445.35 215.72,445.04"/>
    </edge>
    <edge id=":62519837_1" function="internal">
        <lane id=":62519837_1_0" index="0" disallow="tram rail_urban rail rail_electric rail_fast ship container cable_car subway aircraft wheelchair scooter drone" speed="13.89" length="14.39" shape="221.47,450.54 221.17,436.15"/>
    </edge>
    <edge id=":62519837_2" function="internal">
        <lane id=":62519837_2_0" index="0" disallow="tram rail_urban rail rail_electric rail_fast ship container cable_car subway aircraft wheelchair scooter drone" speed="3.65" length="1.44" shape="221.47,450.54 222.25,449.32"/>
    </edge>
    <edge id=":62519837_9" function="internal">
        <lane id=":62519837_9_0" index="0" disallow="tram rail_urban rail rail_electric rail_fast ship container cable_car subway aircraft wheelchair scooter drone" speed="3.65" length="3.23" shape="222.25,449.32 223.04,448.90 223.85,449.28 224.67,450.46"/>
    </edge>
    <edge id=":62519837_3" function="internal">
        <lane id=":62519837_3_0" index="0" disallow="tram rail_urban rail rail_electric rail_fast ship container cable_car subway aircraft wheelchair scooter drone" speed="13.89" length="14.37" shape="224.37,436.09 224.67,450.46"/>
    </edge>
    <edge id=":62519837_4" function="internal">
        <lane id=":62519837_4_0" index="0" disallow="tram rail_urban rail rail_electric rail_fast ship container cable_car subway aircraft wheelchair scooter drone" speed="8.00" length="4.04" shape="224.37,436.09 223.89,439.95 223.82,440.09"/>
    </edge>
    <edge id=":62519837_5" function="internal">